@<TRIPOS>MOLECULE
Custom
920 0
Custom
CustomCharges

@<TRIPOS>ATOM
1 C 0.000000 0.000000 0.000000 C.2 1 VAL 0.000000
2 C 0.000000 0.000000 4.000000 C.2 1 VAL 0.000000
3 C 0.000000 0.000000 8.000000 C.2 1 VAL 0.000000
4 C 0.000000 0.000000 12.000000 C.2 1 VAL 0.000000
5 C 0.000000 0.000000 16.000000 C.2 1 VAL 0.000000
6 C 0.000000 0.000000 20.000000 C.2 1 VAL 0.000000
7 C 0.000000 0.000000 24.000000 C.2 1 VAL 0.000000
8 C 0.000000 0.000000 28.000000 C.2 1 VAL 0.000000
9 C 0.000000 0.000000 32.000000 C.2 1 VAL 0.000000
10 C 0.000000 0.000000 36.000000 C.2 1 VAL 0.000000
11 C 0.000000 4.000000 0.000000 C.2 1 VAL 0.000000
12 C 0.000000 4.000000 4.000000 C.2 1 VAL 0.000000
13 C 0.000000 4.000000 8.000000 C.2 1 VAL 0.000000
14 C 0.000000 4.000000 12.000000 C.2 1 VAL 0.000000
15 C 0.000000 4.000000 16.000000 C.2 1 VAL 0.000000
16 C 0.000000 4.000000 20.000000 C.2 1 VAL 0.000000
17 C 0.000000 4.000000 24.000000 C.2 1 VAL 0.000000
18 C 0.000000 4.000000 28.000000 C.2 1 VAL 0.000000
19 C 0.000000 4.000000 32.000000 C.2 1 VAL 0.000000
20 C 0.000000 4.000000 36.000000 C.2 1 VAL 0.000000
21 C 0.000000 8.000000 0.000000 C.2 1 VAL 0.000000
22 C 0.000000 8.000000 4.000000 C.2 1 VAL 0.000000
23 C 0.000000 8.000000 8.000000 C.2 1 VAL 0.000000
24 C 0.000000 8.000000 12.000000 C.2 1 VAL 0.000000
25 C 0.000000 8.000000 16.000000 C.2 1 VAL 0.000000
26 C 0.000000 8.000000 20.000000 C.2 1 VAL 0.000000
27 C 0.000000 8.000000 24.000000 C.2 1 VAL 0.000000
28 C 0.000000 8.000000 28.000000 C.2 1 VAL 0.000000
29 C 0.000000 8.000000 32.000000 C.2 1 VAL 0.000000
30 C 0.000000 8.000000 36.000000 C.2 1 VAL 0.000000
31 C 0.000000 12.000000 0.000000 C.2 1 VAL 0.000000
32 C 0.000000 12.000000 4.000000 C.2 1 VAL 0.000000
33 C 0.000000 12.000000 8.000000 C.2 1 VAL 0.000000
34 C 0.000000 12.000000 12.000000 C.2 1 VAL 0.000000
35 C 0.000000 12.000000 16.000000 C.2 1 VAL 0.000000
36 C 0.000000 12.000000 20.000000 C.2 1 VAL 0.000000
37 C 0.000000 12.000000 24.000000 C.2 1 VAL 0.000000
38 C 0.000000 12.000000 28.000000 C.2 1 VAL 0.000000
39 C 0.000000 12.000000 32.000000 C.2 1 VAL 0.000000
40 C 0.000000 12.000000 36.000000 C.2 1 VAL 0.000000
41 C 0.000000 16.000000 0.000000 C.2 1 VAL 0.000000
42 C 0.000000 16.000000 4.000000 C.2 1 VAL 0.000000
43 C 0.000000 16.000000 8.000000 C.2 1 VAL 0.000000
44 C 0.000000 16.000000 12.000000 C.2 1 VAL 0.000000
45 C 0.000000 16.000000 16.000000 C.2 1 VAL 0.000000
46 C 0.000000 16.000000 20.000000 C.2 1 VAL 0.000000
47 C 0.000000 16.000000 24.000000 C.2 1 VAL 0.000000
48 C 0.000000 16.000000 28.000000 C.2 1 VAL 0.000000
49 C 0.000000 16.000000 32.000000 C.2 1 VAL 0.000000
50 C 0.000000 16.000000 36.000000 C.2 1 VAL 0.000000
51 C 0.000000 20.000000 0.000000 C.2 1 VAL 0.000000
52 C 0.000000 20.000000 4.000000 C.2 1 VAL 0.000000
53 C 0.000000 20.000000 8.000000 C.2 1 VAL 0.000000
54 C 0.000000 20.000000 12.000000 C.2 1 VAL 0.000000
55 C 0.000000 20.000000 16.000000 C.2 1 VAL 0.000000
56 C 0.000000 20.000000 20.000000 C.2 1 VAL 0.000000
57 C 0.000000 20.000000 24.000000 C.2 1 VAL 0.000000
58 C 0.000000 20.000000 28.000000 C.2 1 VAL 0.000000
59 C 0.000000 20.000000 32.000000 C.2 1 VAL 0.000000
60 C 0.000000 20.000000 36.000000 C.2 1 VAL 0.000000
61 C 0.000000 24.000000 0.000000 C.2 1 VAL 0.000000
62 C 0.000000 24.000000 4.000000 C.2 1 VAL 0.000000
63 C 0.000000 24.000000 8.000000 C.2 1 VAL 0.000000
64 C 0.000000 24.000000 12.000000 C.2 1 VAL 0.000000
65 C 0.000000 24.000000 16.000000 C.2 1 VAL 0.000000
66 C 0.000000 24.000000 20.000000 C.2 1 VAL 0.000000
67 C 0.000000 24.000000 24.000000 C.2 1 VAL 0.000000
68 C 0.000000 24.000000 28.000000 C.2 1 VAL 0.000000
69 C 0.000000 24.000000 32.000000 C.2 1 VAL 0.000000
70 C 0.000000 24.000000 36.000000 C.2 1 VAL 0.000000
71 C 0.000000 28.000000 0.000000 C.2 1 VAL 0.000000
72 C 0.000000 28.000000 4.000000 C.2 1 VAL 0.000000
73 C 0.000000 28.000000 8.000000 C.2 1 VAL 0.000000
74 C 0.000000 28.000000 12.000000 C.2 1 VAL 0.000000
75 C 0.000000 28.000000 16.000000 C.2 1 VAL 0.000000
76 C 0.000000 28.000000 20.000000 C.2 1 VAL 0.000000
77 C 0.000000 28.000000 24.000000 C.2 1 VAL 0.000000
78 C 0.000000 28.000000 28.000000 C.2 1 VAL 0.000000
79 C 0.000000 28.000000 32.000000 C.2 1 VAL 0.000000
80 C 0.000000 28.000000 36.000000 C.2 1 VAL 0.000000
81 C 0.000000 32.000000 0.000000 C.2 1 VAL 0.000000
82 C 0.000000 32.000000 4.000000 C.2 1 VAL 0.000000
83 C 0.000000 32.000000 8.000000 C.2 1 VAL 0.000000
84 C 0.000000 32.000000 12.000000 C.2 1 VAL 0.000000
85 C 0.000000 32.000000 16.000000 C.2 1 VAL 0.000000
86 C 0.000000 32.000000 20.000000 C.2 1 VAL 0.000000
87 C 0.000000 32.000000 24.000000 C.2 1 VAL 0.000000
88 C 0.000000 32.000000 28.000000 C.2 1 VAL 0.000000
89 C 0.000000 32.000000 32.000000 C.2 1 VAL 0.000000
90 C 0.000000 32.000000 36.000000 C.2 1 VAL 0.000000
91 C 0.000000 36.000000 0.000000 C.2 1 VAL 0.000000
92 C 0.000000 36.000000 4.000000 C.2 1 VAL 0.000000
93 C 0.000000 36.000000 8.000000 C.2 1 VAL 0.000000
94 C 0.000000 36.000000 12.000000 C.2 1 VAL 0.000000
95 C 0.000000 36.000000 16.000000 C.2 1 VAL 0.000000
96 C 0.000000 36.000000 20.000000 C.2 1 VAL 0.000000
97 C 0.000000 36.000000 24.000000 C.2 1 VAL 0.000000
98 C 0.000000 36.000000 28.000000 C.2 1 VAL 0.000000
99 C 0.000000 36.000000 32.000000 C.2 1 VAL 0.000000
100 C 0.000000 36.000000 36.000000 C.2 1 VAL 0.000000
101 C 4.000000 0.000000 0.000000 C.2 1 VAL 0.000000
102 C 4.000000 0.000000 4.000000 C.2 1 VAL 0.000000
103 C 4.000000 0.000000 8.000000 C.2 1 VAL 0.000000
104 C 4.000000 0.000000 12.000000 C.2 1 VAL 0.000000
105 C 4.000000 0.000000 16.000000 C.2 1 VAL 0.000000
106 C 4.000000 0.000000 20.000000 C.2 1 VAL 0.000000
107 C 4.000000 0.000000 24.000000 C.2 1 VAL 0.000000
108 C 4.000000 0.000000 28.000000 C.2 1 VAL 0.000000
109 C 4.000000 0.000000 32.000000 C.2 1 VAL 0.000000
110 C 4.000000 0.000000 36.000000 C.2 1 VAL 0.000000
111 C 4.000000 4.000000 0.000000 C.2 1 VAL 0.000000
112 C 4.000000 4.000000 4.000000 C.2 1 VAL 0.000000
113 C 4.000000 4.000000 8.000000 C.2 1 VAL 0.000000
114 C 4.000000 4.000000 12.000000 C.2 1 VAL 0.000000
115 C 4.000000 4.000000 16.000000 C.2 1 VAL 0.000000
116 C 4.000000 4.000000 20.000000 C.2 1 VAL 0.000000
117 C 4.000000 4.000000 24.000000 C.2 1 VAL 0.000000
118 C 4.000000 4.000000 28.000000 C.2 1 VAL 0.000000
119 C 4.000000 4.000000 32.000000 C.2 1 VAL 0.000000
120 C 4.000000 4.000000 36.000000 C.2 1 VAL 0.000000
121 C 4.000000 8.000000 0.000000 C.2 1 VAL 0.000000
122 C 4.000000 8.000000 4.000000 C.2 1 VAL 0.000000
123 C 4.000000 8.000000 8.000000 C.2 1 VAL 0.000000
124 C 4.000000 8.000000 12.000000 C.2 1 VAL 0.000000
125 C 4.000000 8.000000 16.000000 C.2 1 VAL 0.000000
126 C 4.000000 8.000000 20.000000 C.2 1 VAL 0.000000
127 C 4.000000 8.000000 24.000000 C.2 1 VAL 0.000000
128 C 4.000000 8.000000 28.000000 C.2 1 VAL 0.000000
129 C 4.000000 8.000000 32.000000 C.2 1 VAL 0.000000
130 C 4.000000 8.000000 36.000000 C.2 1 VAL 0.000000
131 C 4.000000 12.000000 0.000000 C.2 1 VAL 0.000000
132 C 4.000000 12.000000 4.000000 C.2 1 VAL 0.000000
133 C 4.000000 12.000000 8.000000 C.2 1 VAL 0.000000
134 C 4.000000 12.000000 12.000000 C.2 1 VAL 0.000000
135 C 4.000000 12.000000 16.000000 C.2 1 VAL 0.000000
136 C 4.000000 12.000000 20.000000 C.2 1 VAL 0.000000
137 C 4.000000 12.000000 24.000000 C.2 1 VAL 0.000000
138 C 4.000000 12.000000 28.000000 C.2 1 VAL 0.000000
139 C 4.000000 12.000000 32.000000 C.2 1 VAL 0.000000
140 C 4.000000 12.000000 36.000000 C.2 1 VAL 0.000000
141 C 4.000000 16.000000 0.000000 C.2 1 VAL 0.000000
142 C 4.000000 16.000000 4.000000 C.2 1 VAL 0.000000
143 C 4.000000 16.000000 8.000000 C.2 1 VAL 0.000000
144 C 4.000000 16.000000 12.000000 C.2 1 VAL 0.000000
145 C 4.000000 16.000000 16.000000 C.2 1 VAL 0.000000
146 C 4.000000 16.000000 20.000000 C.2 1 VAL 0.000000
147 C 4.000000 16.000000 24.000000 C.2 1 VAL 0.000000
148 C 4.000000 16.000000 28.000000 C.2 1 VAL 0.000000
149 C 4.000000 16.000000 32.000000 C.2 1 VAL 0.000000
150 C 4.000000 16.000000 36.000000 C.2 1 VAL 0.000000
151 C 4.000000 20.000000 0.000000 C.2 1 VAL 0.000000
152 C 4.000000 20.000000 4.000000 C.2 1 VAL 0.000000
153 C 4.000000 20.000000 8.000000 C.2 1 VAL 0.000000
154 C 4.000000 20.000000 12.000000 C.2 1 VAL 0.000000
155 C 4.000000 20.000000 16.000000 C.2 1 VAL 0.000000
156 C 4.000000 20.000000 20.000000 C.2 1 VAL 0.000000
157 C 4.000000 20.000000 24.000000 C.2 1 VAL 0.000000
158 C 4.000000 20.000000 28.000000 C.2 1 VAL 0.000000
159 C 4.000000 20.000000 32.000000 C.2 1 VAL 0.000000
160 C 4.000000 20.000000 36.000000 C.2 1 VAL 0.000000
161 C 4.000000 24.000000 0.000000 C.2 1 VAL 0.000000
162 C 4.000000 24.000000 4.000000 C.2 1 VAL 0.000000
163 C 4.000000 24.000000 8.000000 C.2 1 VAL 0.000000
164 C 4.000000 24.000000 12.000000 C.2 1 VAL 0.000000
165 C 4.000000 24.000000 16.000000 C.2 1 VAL 0.000000
166 C 4.000000 24.000000 20.000000 C.2 1 VAL 0.000000
167 C 4.000000 24.000000 24.000000 C.2 1 VAL 0.000000
168 C 4.000000 24.000000 28.000000 C.2 1 VAL 0.000000
169 C 4.000000 24.000000 32.000000 C.2 1 VAL 0.000000
170 C 4.000000 24.000000 36.000000 C.2 1 VAL 0.000000
171 C 4.000000 28.000000 0.000000 C.2 1 VAL 0.000000
172 C 4.000000 28.000000 4.000000 C.2 1 VAL 0.000000
173 C 4.000000 28.000000 8.000000 C.2 1 VAL 0.000000
174 C 4.000000 28.000000 12.000000 C.2 1 VAL 0.000000
175 C 4.000000 28.000000 16.000000 C.2 1 VAL 0.000000
176 C 4.000000 28.000000 20.000000 C.2 1 VAL 0.000000
177 C 4.000000 28.000000 24.000000 C.2 1 VAL 0.000000
178 C 4.000000 28.000000 28.000000 C.2 1 VAL 0.000000
179 C 4.000000 28.000000 32.000000 C.2 1 VAL 0.000000
180 C 4.000000 28.000000 36.000000 C.2 1 VAL 0.000000
181 C 4.000000 32.000000 0.000000 C.2 1 VAL 0.000000
182 C 4.000000 32.000000 4.000000 C.2 1 VAL 0.000000
183 C 4.000000 32.000000 8.000000 C.2 1 VAL 0.000000
184 C 4.000000 32.000000 12.000000 C.2 1 VAL 0.000000
185 C 4.000000 32.000000 16.000000 C.2 1 VAL 0.000000
186 C 4.000000 32.000000 20.000000 C.2 1 VAL 0.000000
187 C 4.000000 32.000000 24.000000 C.2 1 VAL 0.000000
188 C 4.000000 32.000000 28.000000 C.2 1 VAL 0.000000
189 C 4.000000 32.000000 32.000000 C.2 1 VAL 0.000000
190 C 4.000000 32.000000 36.000000 C.2 1 VAL 0.000000
191 C 4.000000 36.000000 0.000000 C.2 1 VAL 0.000000
192 C 4.000000 36.000000 4.000000 C.2 1 VAL 0.000000
193 C 4.000000 36.000000 8.000000 C.2 1 VAL 0.000000
194 C 4.000000 36.000000 12.000000 C.2 1 VAL 0.000000
195 C 4.000000 36.000000 16.000000 C.2 1 VAL 0.000000
196 C 4.000000 36.000000 20.000000 C.2 1 VAL 0.000000
197 C 4.000000 36.000000 24.000000 C.2 1 VAL 0.000000
198 C 4.000000 36.000000 28.000000 C.2 1 VAL 0.000000
199 C 4.000000 36.000000 32.000000 C.2 1 VAL 0.000000
200 C 4.000000 36.000000 36.000000 C.2 1 VAL 0.000000
201 C 8.000000 0.000000 0.000000 C.2 1 VAL 0.000000
202 C 8.000000 0.000000 4.000000 C.2 1 VAL 0.000000
203 C 8.000000 0.000000 8.000000 C.2 1 VAL 0.000000
204 C 8.000000 0.000000 12.000000 C.2 1 VAL 0.000000
205 C 8.000000 0.000000 16.000000 C.2 1 VAL 0.000000
206 C 8.000000 0.000000 20.000000 C.2 1 VAL 0.000000
207 C 8.000000 0.000000 24.000000 C.2 1 VAL 0.000000
208 C 8.000000 0.000000 28.000000 C.2 1 VAL 0.000000
209 C 8.000000 0.000000 32.000000 C.2 1 VAL 0.000000
210 C 8.000000 0.000000 36.000000 C.2 1 VAL 0.000000
211 C 8.000000 4.000000 0.000000 C.2 1 VAL 0.000000
212 C 8.000000 4.000000 4.000000 C.2 1 VAL 0.000000
213 C 8.000000 4.000000 8.000000 C.2 1 VAL 0.000000
214 C 8.000000 4.000000 12.000000 C.2 1 VAL 0.000000
215 C 8.000000 4.000000 16.000000 C.2 1 VAL 0.000000
216 C 8.000000 4.000000 20.000000 C.2 1 VAL 0.000000
217 C 8.000000 4.000000 24.000000 C.2 1 VAL 0.000000
218 C 8.000000 4.000000 28.000000 C.2 1 VAL 0.000000
219 C 8.000000 4.000000 32.000000 C.2 1 VAL 0.000000
220 C 8.000000 4.000000 36.000000 C.2 1 VAL 0.000000
221 C 8.000000 8.000000 0.000000 C.2 1 VAL 0.000000
222 C 8.000000 8.000000 4.000000 C.2 1 VAL 0.000000
223 C 8.000000 8.000000 8.000000 C.2 1 VAL 0.000000
224 C 8.000000 8.000000 12.000000 C.2 1 VAL 0.000000
225 C 8.000000 8.000000 16.000000 C.2 1 VAL 0.000000
226 C 8.000000 8.000000 20.000000 C.2 1 VAL 0.000000
227 C 8.000000 8.000000 24.000000 C.2 1 VAL 0.000000
228 C 8.000000 8.000000 28.000000 C.2 1 VAL 0.000000
229 C 8.000000 8.000000 32.000000 C.2 1 VAL 0.000000
230 C 8.000000 8.000000 36.000000 C.2 1 VAL 0.000000
231 C 8.000000 12.000000 0.000000 C.2 1 VAL 0.000000
232 C 8.000000 12.000000 4.000000 C.2 1 VAL 0.000000
233 C 8.000000 12.000000 8.000000 C.2 1 VAL 0.000000
234 C 8.000000 12.000000 12.000000 C.2 1 VAL 0.000000
235 C 8.000000 12.000000 16.000000 C.2 1 VAL 0.000000
236 C 8.000000 12.000000 20.000000 C.2 1 VAL 0.000000
237 C 8.000000 12.000000 24.000000 C.2 1 VAL 0.000000
238 C 8.000000 12.000000 28.000000 C.2 1 VAL 0.000000
239 C 8.000000 12.000000 32.000000 C.2 1 VAL 0.000000
240 C 8.000000 12.000000 36.000000 C.2 1 VAL 0.000000
241 C 8.000000 16.000000 0.000000 C.2 1 VAL 0.000000
242 C 8.000000 16.000000 4.000000 C.2 1 VAL 0.000000
243 C 8.000000 16.000000 8.000000 C.2 1 VAL 0.000000
244 C 8.000000 16.000000 12.000000 C.2 1 VAL 0.000000
245 C 8.000000 16.000000 16.000000 C.2 1 VAL 0.000000
246 C 8.000000 16.000000 20.000000 C.2 1 VAL 0.000000
247 C 8.000000 16.000000 24.000000 C.2 1 VAL 0.000000
248 C 8.000000 16.000000 28.000000 C.2 1 VAL 0.000000
249 C 8.000000 16.000000 32.000000 C.2 1 VAL 0.000000
250 C 8.000000 16.000000 36.000000 C.2 1 VAL 0.000000
251 C 8.000000 20.000000 0.000000 C.2 1 VAL 0.000000
252 C 8.000000 20.000000 4.000000 C.2 1 VAL 0.000000
253 C 8.000000 20.000000 8.000000 C.2 1 VAL 0.000000
254 C 8.000000 20.000000 12.000000 C.2 1 VAL 0.000000
255 C 8.000000 20.000000 16.000000 C.2 1 VAL 0.000000
256 C 8.000000 20.000000 20.000000 C.2 1 VAL 0.000000
257 C 8.000000 20.000000 24.000000 C.2 1 VAL 0.000000
258 C 8.000000 20.000000 28.000000 C.2 1 VAL 0.000000
259 C 8.000000 20.000000 32.000000 C.2 1 VAL 0.000000
260 C 8.000000 20.000000 36.000000 C.2 1 VAL 0.000000
261 C 8.000000 24.000000 0.000000 C.2 1 VAL 0.000000
262 C 8.000000 24.000000 4.000000 C.2 1 VAL 0.000000
263 C 8.000000 24.000000 8.000000 C.2 1 VAL 0.000000
264 C 8.000000 24.000000 12.000000 C.2 1 VAL 0.000000
265 C 8.000000 24.000000 16.000000 C.2 1 VAL 0.000000
266 C 8.000000 24.000000 20.000000 C.2 1 VAL 0.000000
267 C 8.000000 24.000000 24.000000 C.2 1 VAL 0.000000
268 C 8.000000 24.000000 28.000000 C.2 1 VAL 0.000000
269 C 8.000000 24.000000 32.000000 C.2 1 VAL 0.000000
270 C 8.000000 24.000000 36.000000 C.2 1 VAL 0.000000
271 C 8.000000 28.000000 0.000000 C.2 1 VAL 0.000000
272 C 8.000000 28.000000 4.000000 C.2 1 VAL 0.000000
273 C 8.000000 28.000000 8.000000 C.2 1 VAL 0.000000
274 C 8.000000 28.000000 12.000000 C.2 1 VAL 0.000000
275 C 8.000000 28.000000 16.000000 C.2 1 VAL 0.000000
276 C 8.000000 28.000000 20.000000 C.2 1 VAL 0.000000
277 C 8.000000 28.000000 24.000000 C.2 1 VAL 0.000000
278 C 8.000000 28.000000 28.000000 C.2 1 VAL 0.000000
279 C 8.000000 28.000000 32.000000 C.2 1 VAL 0.000000
280 C 8.000000 28.000000 36.000000 C.2 1 VAL 0.000000
281 C 8.000000 32.000000 0.000000 C.2 1 VAL 0.000000
282 C 8.000000 32.000000 4.000000 C.2 1 VAL 0.000000
283 C 8.000000 32.000000 8.000000 C.2 1 VAL 0.000000
284 C 8.000000 32.000000 12.000000 C.2 1 VAL 0.000000
285 C 8.000000 32.000000 16.000000 C.2 1 VAL 0.000000
286 C 8.000000 32.000000 20.000000 C.2 1 VAL 0.000000
287 C 8.000000 32.000000 24.000000 C.2 1 VAL 0.000000
288 C 8.000000 32.000000 28.000000 C.2 1 VAL 0.000000
289 C 8.000000 32.000000 32.000000 C.2 1 VAL 0.000000
290 C 8.000000 32.000000 36.000000 C.2 1 VAL 0.000000
291 C 8.000000 36.000000 0.000000 C.2 1 VAL 0.000000
292 C 8.000000 36.000000 4.000000 C.2 1 VAL 0.000000
293 C 8.000000 36.000000 8.000000 C.2 1 VAL 0.000000
294 C 8.000000 36.000000 12.000000 C.2 1 VAL 0.000000
295 C 8.000000 36.000000 16.000000 C.2 1 VAL 0.000000
296 C 8.000000 36.000000 20.000000 C.2 1 VAL 0.000000
297 C 8.000000 36.000000 24.000000 C.2 1 VAL 0.000000
298 C 8.000000 36.000000 28.000000 C.2 1 VAL 0.000000
299 C 8.000000 36.000000 32.000000 C.2 1 VAL 0.000000
300 C 8.000000 36.000000 36.000000 C.2 1 VAL 0.000000
301 C 12.000000 0.000000 0.000000 C.2 1 VAL 0.000000
302 C 12.000000 0.000000 4.000000 C.2 1 VAL 0.000000
303 C 12.000000 0.000000 8.000000 C.2 1 VAL 0.000000
304 C 12.000000 0.000000 12.000000 C.2 1 VAL 0.000000
305 C 12.000000 0.000000 16.000000 C.2 1 VAL 0.000000
306 C 12.000000 0.000000 20.000000 C.2 1 VAL 0.000000
307 C 12.000000 0.000000 24.000000 C.2 1 VAL 0.000000
308 C 12.000000 0.000000 28.000000 C.2 1 VAL 0.000000
309 C 12.000000 0.000000 32.000000 C.2 1 VAL 0.000000
310 C 12.000000 0.000000 36.000000 C.2 1 VAL 0.000000
311 C 12.000000 4.000000 0.000000 C.2 1 VAL 0.000000
312 C 12.000000 4.000000 4.000000 C.2 1 VAL 0.000000
313 C 12.000000 4.000000 8.000000 C.2 1 VAL 0.000000
314 C 12.000000 4.000000 12.000000 C.2 1 VAL 0.000000
315 C 12.000000 4.000000 16.000000 C.2 1 VAL 0.000000
316 C 12.000000 4.000000 20.000000 C.2 1 VAL 0.000000
317 C 12.000000 4.000000 24.000000 C.2 1 VAL 0.000000
318 C 12.000000 4.000000 28.000000 C.2 1 VAL 0.000000
319 C 12.000000 4.000000 32.000000 C.2 1 VAL 0.000000
320 C 12.000000 4.000000 36.000000 C.2 1 VAL 0.000000
321 C 12.000000 8.000000 0.000000 C.2 1 VAL 0.000000
322 C 12.000000 8.000000 4.000000 C.2 1 VAL 0.000000
323 C 12.000000 8.000000 8.000000 C.2 1 VAL 0.000000
324 C 12.000000 8.000000 12.000000 C.2 1 VAL 0.000000
325 C 12.000000 8.000000 16.000000 C.2 1 VAL 0.000000
326 C 12.000000 8.000000 20.000000 C.2 1 VAL 0.000000
327 C 12.000000 8.000000 24.000000 C.2 1 VAL 0.000000
328 C 12.000000 8.000000 28.000000 C.2 1 VAL 0.000000
329 C 12.000000 8.000000 32.000000 C.2 1 VAL 0.000000
330 C 12.000000 8.000000 36.000000 C.2 1 VAL 0.000000
331 C 12.000000 12.000000 0.000000 C.2 1 VAL 0.000000
332 C 12.000000 12.000000 4.000000 C.2 1 VAL 0.000000
333 C 12.000000 12.000000 8.000000 C.2 1 VAL 0.000000
334 C 12.000000 12.000000 12.000000 C.2 1 VAL 0.000000
335 C 12.000000 12.000000 16.000000 C.2 1 VAL 0.000000
336 C 12.000000 12.000000 20.000000 C.2 1 VAL 0.000000
337 C 12.000000 12.000000 24.000000 C.2 1 VAL 0.000000
338 C 12.000000 12.000000 28.000000 C.2 1 VAL 0.000000
339 C 12.000000 12.000000 32.000000 C.2 1 VAL 0.000000
340 C 12.000000 12.000000 36.000000 C.2 1 VAL 0.000000
341 C 12.000000 16.000000 0.000000 C.2 1 VAL 0.000000
342 C 12.000000 16.000000 4.000000 C.2 1 VAL 0.000000
343 C 12.000000 16.000000 8.000000 C.2 1 VAL 0.000000
344 C 12.000000 16.000000 12.000000 C.2 1 VAL 0.000000
345 C 12.000000 16.000000 16.000000 C.2 1 VAL 0.000000
346 C 12.000000 16.000000 20.000000 C.2 1 VAL 0.000000
347 C 12.000000 16.000000 24.000000 C.2 1 VAL 0.000000
348 C 12.000000 16.000000 28.000000 C.2 1 VAL 0.000000
349 C 12.000000 16.000000 32.000000 C.2 1 VAL 0.000000
350 C 12.000000 16.000000 36.000000 C.2 1 VAL 0.000000
351 C 12.000000 20.000000 0.000000 C.2 1 VAL 0.000000
352 C 12.000000 20.000000 4.000000 C.2 1 VAL 0.000000
353 C 12.000000 20.000000 8.000000 C.2 1 VAL 0.000000
354 C 12.000000 20.000000 12.000000 C.2 1 VAL 0.000000
355 C 12.000000 20.000000 16.000000 C.2 1 VAL 0.000000
356 C 12.000000 20.000000 20.000000 C.2 1 VAL 0.000000
357 C 12.000000 20.000000 24.000000 C.2 1 VAL 0.000000
358 C 12.000000 20.000000 28.000000 C.2 1 VAL 0.000000
359 C 12.000000 20.000000 32.000000 C.2 1 VAL 0.000000
360 C 12.000000 20.000000 36.000000 C.2 1 VAL 0.000000
361 C 12.000000 24.000000 0.000000 C.2 1 VAL 0.000000
362 C 12.000000 24.000000 4.000000 C.2 1 VAL 0.000000
363 C 12.000000 24.000000 8.000000 C.2 1 VAL 0.000000
364 C 12.000000 24.000000 12.000000 C.2 1 VAL 0.000000
365 C 12.000000 24.000000 16.000000 C.2 1 VAL 0.000000
366 C 12.000000 24.000000 20.000000 C.2 1 VAL 0.000000
367 C 12.000000 24.000000 24.000000 C.2 1 VAL 0.000000
368 C 12.000000 24.000000 28.000000 C.2 1 VAL 0.000000
369 C 12.000000 24.000000 32.000000 C.2 1 VAL 0.000000
370 C 12.000000 24.000000 36.000000 C.2 1 VAL 0.000000
371 C 12.000000 28.000000 0.000000 C.2 1 VAL 0.000000
372 C 12.000000 28.000000 4.000000 C.2 1 VAL 0.000000
373 C 12.000000 28.000000 8.000000 C.2 1 VAL 0.000000
374 C 12.000000 28.000000 12.000000 C.2 1 VAL 0.000000
375 C 12.000000 28.000000 16.000000 C.2 1 VAL 0.000000
376 C 12.000000 28.000000 20.000000 C.2 1 VAL 0.000000
377 C 12.000000 28.000000 24.000000 C.2 1 VAL 0.000000
378 C 12.000000 28.000000 28.000000 C.2 1 VAL 0.000000
379 C 12.000000 28.000000 32.000000 C.2 1 VAL 0.000000
380 C 12.000000 28.000000 36.000000 C.2 1 VAL 0.000000
381 C 12.000000 32.000000 0.000000 C.2 1 VAL 0.000000
382 C 12.000000 32.000000 4.000000 C.2 1 VAL 0.000000
383 C 12.000000 32.000000 8.000000 C.2 1 VAL 0.000000
384 C 12.000000 32.000000 12.000000 C.2 1 VAL 0.000000
385 C 12.000000 32.000000 16.000000 C.2 1 VAL 0.000000
386 C 12.000000 32.000000 20.000000 C.2 1 VAL 0.000000
387 C 12.000000 32.000000 24.000000 C.2 1 VAL 0.000000
388 C 12.000000 32.000000 28.000000 C.2 1 VAL 0.000000
389 C 12.000000 32.000000 32.000000 C.2 1 VAL 0.000000
390 C 12.000000 32.000000 36.000000 C.2 1 VAL 0.000000
391 C 12.000000 36.000000 0.000000 C.2 1 VAL 0.000000
392 C 12.000000 36.000000 4.000000 C.2 1 VAL 0.000000
393 C 12.000000 36.000000 8.000000 C.2 1 VAL 0.000000
394 C 12.000000 36.000000 12.000000 C.2 1 VAL 0.000000
395 C 12.000000 36.000000 16.000000 C.2 1 VAL 0.000000
396 C 12.000000 36.000000 20.000000 C.2 1 VAL 0.000000
397 C 12.000000 36.000000 24.000000 C.2 1 VAL 0.000000
398 C 12.000000 36.000000 28.000000 C.2 1 VAL 0.000000
399 C 12.000000 36.000000 32.000000 C.2 1 VAL 0.000000
400 C 12.000000 36.000000 36.000000 C.2 1 VAL 0.000000
401 C 16.000000 0.000000 0.000000 C.2 1 VAL 0.000000
402 C 16.000000 0.000000 4.000000 C.2 1 VAL 0.000000
403 C 16.000000 0.000000 8.000000 C.2 1 VAL 0.000000
404 C 16.000000 0.000000 12.000000 C.2 1 VAL 0.000000
405 C 16.000000 0.000000 16.000000 C.2 1 VAL 0.000000
406 C 16.000000 0.000000 20.000000 C.2 1 VAL 0.000000
407 C 16.000000 0.000000 24.000000 C.2 1 VAL 0.000000
408 C 16.000000 0.000000 28.000000 C.2 1 VAL 0.000000
409 C 16.000000 0.000000 32.000000 C.2 1 VAL 0.000000
410 C 16.000000 0.000000 36.000000 C.2 1 VAL 0.000000
411 C 16.000000 4.000000 0.000000 C.2 1 VAL 0.000000
412 C 16.000000 4.000000 4.000000 C.2 1 VAL 0.000000
413 C 16.000000 4.000000 8.000000 C.2 1 VAL 0.000000
414 C 16.000000 4.000000 12.000000 C.2 1 VAL 0.000000
415 C 16.000000 4.000000 16.000000 C.2 1 VAL 0.000000
416 C 16.000000 4.000000 20.000000 C.2 1 VAL 0.000000
417 C 16.000000 4.000000 24.000000 C.2 1 VAL 0.000000
418 C 16.000000 4.000000 28.000000 C.2 1 VAL 0.000000
419 C 16.000000 4.000000 32.000000 C.2 1 VAL 0.000000
420 C 16.000000 4.000000 36.000000 C.2 1 VAL 0.000000
421 C 16.000000 8.000000 0.000000 C.2 1 VAL 0.000000
422 C 16.000000 8.000000 4.000000 C.2 1 VAL 0.000000
423 C 16.000000 8.000000 8.000000 C.2 1 VAL 0.000000
424 C 16.000000 8.000000 12.000000 C.2 1 VAL 0.000000
425 C 16.000000 8.000000 16.000000 C.2 1 VAL 0.000000
426 C 16.000000 8.000000 20.000000 C.2 1 VAL 0.000000
427 C 16.000000 8.000000 24.000000 C.2 1 VAL 0.000000
428 C 16.000000 8.000000 28.000000 C.2 1 VAL 0.000000
429 C 16.000000 8.000000 32.000000 C.2 1 VAL 0.000000
430 C 16.000000 8.000000 36.000000 C.2 1 VAL 0.000000
431 C 16.000000 12.000000 0.000000 C.2 1 VAL 0.000000
432 C 16.000000 12.000000 4.000000 C.2 1 VAL 0.000000
433 C 16.000000 12.000000 8.000000 C.2 1 VAL 0.000000
434 C 16.000000 12.000000 12.000000 C.2 1 VAL 0.000000
435 C 16.000000 12.000000 16.000000 C.2 1 VAL 0.000000
436 C 16.000000 12.000000 20.000000 C.2 1 VAL 0.000000
437 C 16.000000 12.000000 24.000000 C.2 1 VAL 0.000000
438 C 16.000000 12.000000 28.000000 C.2 1 VAL 0.000000
439 C 16.000000 12.000000 32.000000 C.2 1 VAL 0.000000
440 C 16.000000 12.000000 36.000000 C.2 1 VAL 0.000000
441 C 16.000000 16.000000 0.000000 C.2 1 VAL 0.000000
442 C 16.000000 16.000000 4.000000 C.2 1 VAL 0.000000
443 C 16.000000 16.000000 8.000000 C.2 1 VAL 0.000000
444 C 16.000000 16.000000 12.000000 C.2 1 VAL 0.000000
445 C 16.000000 16.000000 16.000000 C.2 1 VAL 0.000000
446 C 16.000000 16.000000 20.000000 C.2 1 VAL 0.000000
447 C 16.000000 16.000000 24.000000 C.2 1 VAL 0.000000
448 C 16.000000 16.000000 28.000000 C.2 1 VAL 0.000000
449 C 16.000000 16.000000 32.000000 C.2 1 VAL 0.000000
450 C 16.000000 16.000000 36.000000 C.2 1 VAL 0.000000
451 C 16.000000 20.000000 0.000000 C.2 1 VAL 0.000000
452 C 16.000000 20.000000 4.000000 C.2 1 VAL 0.000000
453 C 16.000000 20.000000 8.000000 C.2 1 VAL 0.000000
454 C 16.000000 20.000000 12.000000 C.2 1 VAL 0.000000
455 C 16.000000 20.000000 16.000000 C.2 1 VAL 0.000000
456 C 16.000000 20.000000 20.000000 C.2 1 VAL 0.000000
457 C 16.000000 20.000000 24.000000 C.2 1 VAL 0.000000
458 C 16.000000 20.000000 28.000000 C.2 1 VAL 0.000000
459 C 16.000000 20.000000 32.000000 C.2 1 VAL 0.000000
460 C 16.000000 20.000000 36.000000 C.2 1 VAL 0.000000
461 C 16.000000 24.000000 0.000000 C.2 1 VAL 0.000000
462 C 16.000000 24.000000 4.000000 C.2 1 VAL 0.000000
463 C 16.000000 24.000000 8.000000 C.2 1 VAL 0.000000
464 C 16.000000 24.000000 12.000000 C.2 1 VAL 0.000000
465 C 16.000000 24.000000 16.000000 C.2 1 VAL 0.000000
466 C 16.000000 24.000000 20.000000 C.2 1 VAL 0.000000
467 C 16.000000 24.000000 24.000000 C.2 1 VAL 0.000000
468 C 16.000000 24.000000 28.000000 C.2 1 VAL 0.000000
469 C 16.000000 24.000000 32.000000 C.2 1 VAL 0.000000
470 C 16.000000 24.000000 36.000000 C.2 1 VAL 0.000000
471 C 16.000000 28.000000 0.000000 C.2 1 VAL 0.000000
472 C 16.000000 28.000000 4.000000 C.2 1 VAL 0.000000
473 C 16.000000 28.000000 8.000000 C.2 1 VAL 0.000000
474 C 16.000000 28.000000 12.000000 C.2 1 VAL 0.000000
475 C 16.000000 28.000000 16.000000 C.2 1 VAL 0.000000
476 C 16.000000 28.000000 20.000000 C.2 1 VAL 0.000000
477 C 16.000000 28.000000 24.000000 C.2 1 VAL 0.000000
478 C 16.000000 28.000000 28.000000 C.2 1 VAL 0.000000
479 C 16.000000 28.000000 32.000000 C.2 1 VAL 0.000000
480 C 16.000000 28.000000 36.000000 C.2 1 VAL 0.000000
481 C 16.000000 32.000000 0.000000 C.2 1 VAL 0.000000
482 C 16.000000 32.000000 4.000000 C.2 1 VAL 0.000000
483 C 16.000000 32.000000 8.000000 C.2 1 VAL 0.000000
484 C 16.000000 32.000000 12.000000 C.2 1 VAL 0.000000
485 C 16.000000 32.000000 16.000000 C.2 1 VAL 0.000000
486 C 16.000000 32.000000 20.000000 C.2 1 VAL 0.000000
487 C 16.000000 32.000000 24.000000 C.2 1 VAL 0.000000
488 C 16.000000 32.000000 28.000000 C.2 1 VAL 0.000000
489 C 16.000000 32.000000 32.000000 C.2 1 VAL 0.000000
490 C 16.000000 32.000000 36.000000 C.2 1 VAL 0.000000
491 C 16.000000 36.000000 0.000000 C.2 1 VAL 0.000000
492 C 16.000000 36.000000 4.000000 C.2 1 VAL 0.000000
493 C 16.000000 36.000000 8.000000 C.2 1 VAL 0.000000
494 C 16.000000 36.000000 12.000000 C.2 1 VAL 0.000000
495 C 16.000000 36.000000 16.000000 C.2 1 VAL 0.000000
496 C 16.000000 36.000000 20.000000 C.2 1 VAL 0.000000
497 C 16.000000 36.000000 24.000000 C.2 1 VAL 0.000000
498 C 16.000000 36.000000 28.000000 C.2 1 VAL 0.000000
499 C 16.000000 36.000000 32.000000 C.2 1 VAL 0.000000
500 C 16.000000 36.000000 36.000000 C.2 1 VAL 0.000000
501 C 20.000000 0.000000 0.000000 C.2 1 VAL 0.000000
502 C 20.000000 0.000000 4.000000 C.2 1 VAL 0.000000
503 C 20.000000 0.000000 8.000000 C.2 1 VAL 0.000000
504 C 20.000000 0.000000 12.000000 C.2 1 VAL 0.000000
505 C 20.000000 0.000000 16.000000 C.2 1 VAL 0.000000
506 C 20.000000 0.000000 20.000000 C.2 1 VAL 0.000000
507 C 20.000000 0.000000 24.000000 C.2 1 VAL 0.000000
508 C 20.000000 0.000000 28.000000 C.2 1 VAL 0.000000
509 C 20.000000 0.000000 32.000000 C.2 1 VAL 0.000000
510 C 20.000000 0.000000 36.000000 C.2 1 VAL 0.000000
511 C 20.000000 4.000000 0.000000 C.2 1 VAL 0.000000
512 C 20.000000 4.000000 4.000000 C.2 1 VAL 0.000000
513 C 20.000000 4.000000 8.000000 C.2 1 VAL 0.000000
514 C 20.000000 4.000000 12.000000 C.2 1 VAL 0.000000
515 C 20.000000 4.000000 16.000000 C.2 1 VAL 0.000000
516 C 20.000000 4.000000 20.000000 C.2 1 VAL 0.000000
517 C 20.000000 4.000000 24.000000 C.2 1 VAL 0.000000
518 C 20.000000 4.000000 28.000000 C.2 1 VAL 0.000000
519 C 20.000000 4.000000 32.000000 C.2 1 VAL 0.000000
520 C 20.000000 4.000000 36.000000 C.2 1 VAL 0.000000
521 C 20.000000 8.000000 0.000000 C.2 1 VAL 0.000000
522 C 20.000000 8.000000 4.000000 C.2 1 VAL 0.000000
523 C 20.000000 8.000000 8.000000 C.2 1 VAL 0.000000
524 C 20.000000 8.000000 12.000000 C.2 1 VAL 0.000000
525 C 20.000000 8.000000 16.000000 C.2 1 VAL 0.000000
526 C 20.000000 8.000000 20.000000 C.2 1 VAL 0.000000
527 C 20.000000 8.000000 24.000000 C.2 1 VAL 0.000000
528 C 20.000000 8.000000 28.000000 C.2 1 VAL 0.000000
529 C 20.000000 8.000000 32.000000 C.2 1 VAL 0.000000
530 C 20.000000 8.000000 36.000000 C.2 1 VAL 0.000000
531 C 20.000000 12.000000 0.000000 C.2 1 VAL 0.000000
532 C 20.000000 12.000000 4.000000 C.2 1 VAL 0.000000
533 C 20.000000 12.000000 8.000000 C.2 1 VAL 0.000000
534 C 20.000000 12.000000 28.000000 C.2 1 VAL 0.000000
535 C 20.000000 12.000000 32.000000 C.2 1 VAL 0.000000
536 C 20.000000 12.000000 36.000000 C.2 1 VAL 0.000000
537 C 20.000000 16.000000 0.000000 C.2 1 VAL 0.000000
538 C 20.000000 16.000000 4.000000 C.2 1 VAL 0.000000
539 C 20.000000 16.000000 8.000000 C.2 1 VAL 0.000000
540 C 20.000000 16.000000 28.000000 C.2 1 VAL 0.000000
541 C 20.000000 16.000000 32.000000 C.2 1 VAL 0.000000
542 C 20.000000 16.000000 36.000000 C.2 1 VAL 0.000000
543 C 20.000000 20.000000 0.000000 C.2 1 VAL 0.000000
544 C 20.000000 20.000000 4.000000 C.2 1 VAL 0.000000
545 C 20.000000 20.000000 8.000000 C.2 1 VAL 0.000000
546 C 20.000000 20.000000 28.000000 C.2 1 VAL 0.000000
547 C 20.000000 20.000000 32.000000 C.2 1 VAL 0.000000
548 C 20.000000 20.000000 36.000000 C.2 1 VAL 0.000000
549 C 20.000000 24.000000 0.000000 C.2 1 VAL 0.000000
550 C 20.000000 24.000000 4.000000 C.2 1 VAL 0.000000
551 C 20.000000 24.000000 8.000000 C.2 1 VAL 0.000000
552 C 20.000000 24.000000 28.000000 C.2 1 VAL 0.000000
553 C 20.000000 24.000000 32.000000 C.2 1 VAL 0.000000
554 C 20.000000 24.000000 36.000000 C.2 1 VAL 0.000000
555 C 20.000000 28.000000 0.000000 C.2 1 VAL 0.000000
556 C 20.000000 28.000000 4.000000 C.2 1 VAL 0.000000
557 C 20.000000 28.000000 8.000000 C.2 1 VAL 0.000000
558 C 20.000000 28.000000 12.000000 C.2 1 VAL 0.000000
559 C 20.000000 28.000000 16.000000 C.2 1 VAL 0.000000
560 C 20.000000 28.000000 20.000000 C.2 1 VAL 0.000000
561 C 20.000000 28.000000 24.000000 C.2 1 VAL 0.000000
562 C 20.000000 28.000000 28.000000 C.2 1 VAL 0.000000
563 C 20.000000 28.000000 32.000000 C.2 1 VAL 0.000000
564 C 20.000000 28.000000 36.000000 C.2 1 VAL 0.000000
565 C 20.000000 32.000000 0.000000 C.2 1 VAL 0.000000
566 C 20.000000 32.000000 4.000000 C.2 1 VAL 0.000000
567 C 20.000000 32.000000 8.000000 C.2 1 VAL 0.000000
568 C 20.000000 32.000000 12.000000 C.2 1 VAL 0.000000
569 C 20.000000 32.000000 16.000000 C.2 1 VAL 0.000000
570 C 20.000000 32.000000 20.000000 C.2 1 VAL 0.000000
571 C 20.000000 32.000000 24.000000 C.2 1 VAL 0.000000
572 C 20.000000 32.000000 28.000000 C.2 1 VAL 0.000000
573 C 20.000000 32.000000 32.000000 C.2 1 VAL 0.000000
574 C 20.000000 32.000000 36.000000 C.2 1 VAL 0.000000
575 C 20.000000 36.000000 0.000000 C.2 1 VAL 0.000000
576 C 20.000000 36.000000 4.000000 C.2 1 VAL 0.000000
577 C 20.000000 36.000000 8.000000 C.2 1 VAL 0.000000
578 C 20.000000 36.000000 12.000000 C.2 1 VAL 0.000000
579 C 20.000000 36.000000 16.000000 C.2 1 VAL 0.000000
580 C 20.000000 36.000000 20.000000 C.2 1 VAL 0.000000
581 C 20.000000 36.000000 24.000000 C.2 1 VAL 0.000000
582 C 20.000000 36.000000 28.000000 C.2 1 VAL 0.000000
583 C 20.000000 36.000000 32.000000 C.2 1 VAL 0.000000
584 C 20.000000 36.000000 36.000000 C.2 1 VAL 0.000000
585 C 24.000000 0.000000 0.000000 C.2 1 VAL 0.000000
586 C 24.000000 0.000000 4.000000 C.2 1 VAL 0.000000
587 C 24.000000 0.000000 8.000000 C.2 1 VAL 0.000000
588 C 24.000000 0.000000 12.000000 C.2 1 VAL 0.000000
589 C 24.000000 0.000000 16.000000 C.2 1 VAL 0.000000
590 C 24.000000 0.000000 20.000000 C.2 1 VAL 0.000000
591 C 24.000000 0.000000 24.000000 C.2 1 VAL 0.000000
592 C 24.000000 0.000000 28.000000 C.2 1 VAL 0.000000
593 C 24.000000 0.000000 32.000000 C.2 1 VAL 0.000000
594 C 24.000000 0.000000 36.000000 C.2 1 VAL 0.000000
595 C 24.000000 4.000000 0.000000 C.2 1 VAL 0.000000
596 C 24.000000 4.000000 4.000000 C.2 1 VAL 0.000000
597 C 24.000000 4.000000 8.000000 C.2 1 VAL 0.000000
598 C 24.000000 4.000000 12.000000 C.2 1 VAL 0.000000
599 C 24.000000 4.000000 16.000000 C.2 1 VAL 0.000000
600 C 24.000000 4.000000 20.000000 C.2 1 VAL 0.000000
601 C 24.000000 4.000000 24.000000 C.2 1 VAL 0.000000
602 C 24.000000 4.000000 28.000000 C.2 1 VAL 0.000000
603 C 24.000000 4.000000 32.000000 C.2 1 VAL 0.000000
604 C 24.000000 4.000000 36.000000 C.2 1 VAL 0.000000
605 C 24.000000 8.000000 0.000000 C.2 1 VAL 0.000000
606 C 24.000000 8.000000 4.000000 C.2 1 VAL 0.000000
607 C 24.000000 8.000000 8.000000 C.2 1 VAL 0.000000
608 C 24.000000 8.000000 12.000000 C.2 1 VAL 0.000000
609 C 24.000000 8.000000 16.000000 C.2 1 VAL 0.000000
610 C 24.000000 8.000000 20.000000 C.2 1 VAL 0.000000
611 C 24.000000 8.000000 24.000000 C.2 1 VAL 0.000000
612 C 24.000000 8.000000 28.000000 C.2 1 VAL 0.000000
613 C 24.000000 8.000000 32.000000 C.2 1 VAL 0.000000
614 C 24.000000 8.000000 36.000000 C.2 1 VAL 0.000000
615 C 24.000000 12.000000 0.000000 C.2 1 VAL 0.000000
616 C 24.000000 12.000000 4.000000 C.2 1 VAL 0.000000
617 C 24.000000 12.000000 8.000000 C.2 1 VAL 0.000000
618 C 24.000000 12.000000 28.000000 C.2 1 VAL 0.000000
619 C 24.000000 12.000000 32.000000 C.2 1 VAL 0.000000
620 C 24.000000 12.000000 36.000000 C.2 1 VAL 0.000000
621 C 24.000000 16.000000 0.000000 C.2 1 VAL 0.000000
622 C 24.000000 16.000000 4.000000 C.2 1 VAL 0.000000
623 C 24.000000 16.000000 8.000000 C.2 1 VAL 0.000000
624 C 24.000000 16.000000 28.000000 C.2 1 VAL 0.000000
625 C 24.000000 16.000000 32.000000 C.2 1 VAL 0.000000
626 C 24.000000 16.000000 36.000000 C.2 1 VAL 0.000000
627 C 24.000000 20.000000 0.000000 C.2 1 VAL 0.000000
628 C 24.000000 20.000000 4.000000 C.2 1 VAL 0.000000
629 C 24.000000 20.000000 8.000000 C.2 1 VAL 0.000000
630 C 24.000000 20.000000 28.000000 C.2 1 VAL 0.000000
631 C 24.000000 20.000000 32.000000 C.2 1 VAL 0.000000
632 C 24.000000 20.000000 36.000000 C.2 1 VAL 0.000000
633 C 24.000000 24.000000 0.000000 C.2 1 VAL 0.000000
634 C 24.000000 24.000000 4.000000 C.2 1 VAL 0.000000
635 C 24.000000 24.000000 8.000000 C.2 1 VAL 0.000000
636 C 24.000000 24.000000 28.000000 C.2 1 VAL 0.000000
637 C 24.000000 24.000000 32.000000 C.2 1 VAL 0.000000
638 C 24.000000 24.000000 36.000000 C.2 1 VAL 0.000000
639 C 24.000000 28.000000 0.000000 C.2 1 VAL 0.000000
640 C 24.000000 28.000000 4.000000 C.2 1 VAL 0.000000
641 C 24.000000 28.000000 8.000000 C.2 1 VAL 0.000000
642 C 24.000000 28.000000 12.000000 C.2 1 VAL 0.000000
643 C 24.000000 28.000000 16.000000 C.2 1 VAL 0.000000
644 C 24.000000 28.000000 20.000000 C.2 1 VAL 0.000000
645 C 24.000000 28.000000 24.000000 C.2 1 VAL 0.000000
646 C 24.000000 28.000000 28.000000 C.2 1 VAL 0.000000
647 C 24.000000 28.000000 32.000000 C.2 1 VAL 0.000000
648 C 24.000000 28.000000 36.000000 C.2 1 VAL 0.000000
649 C 24.000000 32.000000 0.000000 C.2 1 VAL 0.000000
650 C 24.000000 32.000000 4.000000 C.2 1 VAL 0.000000
651 C 24.000000 32.000000 8.000000 C.2 1 VAL 0.000000
652 C 24.000000 32.000000 12.000000 C.2 1 VAL 0.000000
653 C 24.000000 32.000000 16.000000 C.2 1 VAL 0.000000
654 C 24.000000 32.000000 20.000000 C.2 1 VAL 0.000000
655 C 24.000000 32.000000 24.000000 C.2 1 VAL 0.000000
656 C 24.000000 32.000000 28.000000 C.2 1 VAL 0.000000
657 C 24.000000 32.000000 32.000000 C.2 1 VAL 0.000000
658 C 24.000000 32.000000 36.000000 C.2 1 VAL 0.000000
659 C 24.000000 36.000000 0.000000 C.2 1 VAL 0.000000
660 C 24.000000 36.000000 4.000000 C.2 1 VAL 0.000000
661 C 24.000000 36.000000 8.000000 C.2 1 VAL 0.000000
662 C 24.000000 36.000000 12.000000 C.2 1 VAL 0.000000
663 C 24.000000 36.000000 16.000000 C.2 1 VAL 0.000000
664 C 24.000000 36.000000 20.000000 C.2 1 VAL 0.000000
665 C 24.000000 36.000000 24.000000 C.2 1 VAL 0.000000
666 C 24.000000 36.000000 28.000000 C.2 1 VAL 0.000000
667 C 24.000000 36.000000 32.000000 C.2 1 VAL 0.000000
668 C 24.000000 36.000000 36.000000 C.2 1 VAL 0.000000
669 C 28.000000 0.000000 0.000000 C.2 1 VAL 0.000000
670 C 28.000000 0.000000 4.000000 C.2 1 VAL 0.000000
671 C 28.000000 0.000000 8.000000 C.2 1 VAL 0.000000
672 C 28.000000 0.000000 12.000000 C.2 1 VAL 0.000000
673 C 28.000000 0.000000 16.000000 C.2 1 VAL 0.000000
674 C 28.000000 0.000000 20.000000 C.2 1 VAL 0.000000
675 C 28.000000 0.000000 24.000000 C.2 1 VAL 0.000000
676 C 28.000000 0.000000 28.000000 C.2 1 VAL 0.000000
677 C 28.000000 0.000000 32.000000 C.2 1 VAL 0.000000
678 C 28.000000 0.000000 36.000000 C.2 1 VAL 0.000000
679 C 28.000000 4.000000 0.000000 C.2 1 VAL 0.000000
680 C 28.000000 4.000000 4.000000 C.2 1 VAL 0.000000
681 C 28.000000 4.000000 8.000000 C.2 1 VAL 0.000000
682 C 28.000000 4.000000 12.000000 C.2 1 VAL 0.000000
683 C 28.000000 4.000000 16.000000 C.2 1 VAL 0.000000
684 C 28.000000 4.000000 20.000000 C.2 1 VAL 0.000000
685 C 28.000000 4.000000 24.000000 C.2 1 VAL 0.000000
686 C 28.000000 4.000000 28.000000 C.2 1 VAL 0.000000
687 C 28.000000 4.000000 32.000000 C.2 1 VAL 0.000000
688 C 28.000000 4.000000 36.000000 C.2 1 VAL 0.000000
689 C 28.000000 8.000000 0.000000 C.2 1 VAL 0.000000
690 C 28.000000 8.000000 4.000000 C.2 1 VAL 0.000000
691 C 28.000000 8.000000 8.000000 C.2 1 VAL 0.000000
692 C 28.000000 8.000000 12.000000 C.2 1 VAL 0.000000
693 C 28.000000 8.000000 16.000000 C.2 1 VAL 0.000000
694 C 28.000000 8.000000 20.000000 C.2 1 VAL 0.000000
695 C 28.000000 8.000000 24.000000 C.2 1 VAL 0.000000
696 C 28.000000 8.000000 28.000000 C.2 1 VAL 0.000000
697 C 28.000000 8.000000 32.000000 C.2 1 VAL 0.000000
698 C 28.000000 8.000000 36.000000 C.2 1 VAL 0.000000
699 C 28.000000 12.000000 0.000000 C.2 1 VAL 0.000000
700 C 28.000000 12.000000 4.000000 C.2 1 VAL 0.000000
701 C 28.000000 12.000000 8.000000 C.2 1 VAL 0.000000
702 C 28.000000 12.000000 28.000000 C.2 1 VAL 0.000000
703 C 28.000000 12.000000 32.000000 C.2 1 VAL 0.000000
704 C 28.000000 12.000000 36.000000 C.2 1 VAL 0.000000
705 C 28.000000 16.000000 0.000000 C.2 1 VAL 0.000000
706 C 28.000000 16.000000 4.000000 C.2 1 VAL 0.000000
707 C 28.000000 16.000000 8.000000 C.2 1 VAL 0.000000
708 C 28.000000 16.000000 28.000000 C.2 1 VAL 0.000000
709 C 28.000000 16.000000 32.000000 C.2 1 VAL 0.000000
710 C 28.000000 16.000000 36.000000 C.2 1 VAL 0.000000
711 C 28.000000 20.000000 0.000000 C.2 1 VAL 0.000000
712 C 28.000000 20.000000 4.000000 C.2 1 VAL 0.000000
713 C 28.000000 20.000000 8.000000 C.2 1 VAL 0.000000
714 C 28.000000 20.000000 28.000000 C.2 1 VAL 0.000000
715 C 28.000000 20.000000 32.000000 C.2 1 VAL 0.000000
716 C 28.000000 20.000000 36.000000 C.2 1 VAL 0.000000
717 C 28.000000 24.000000 0.000000 C.2 1 VAL 0.000000
718 C 28.000000 24.000000 4.000000 C.2 1 VAL 0.000000
719 C 28.000000 24.000000 8.000000 C.2 1 VAL 0.000000
720 C 28.000000 24.000000 28.000000 C.2 1 VAL 0.000000
721 C 28.000000 24.000000 32.000000 C.2 1 VAL 0.000000
722 C 28.000000 24.000000 36.000000 C.2 1 VAL 0.000000
723 C 28.000000 28.000000 0.000000 C.2 1 VAL 0.000000
724 C 28.000000 28.000000 4.000000 C.2 1 VAL 0.000000
725 C 28.000000 28.000000 8.000000 C.2 1 VAL 0.000000
726 C 28.000000 28.000000 12.000000 C.2 1 VAL 0.000000
727 C 28.000000 28.000000 16.000000 C.2 1 VAL 0.000000
728 C 28.000000 28.000000 20.000000 C.2 1 VAL 0.000000
729 C 28.000000 28.000000 24.000000 C.2 1 VAL 0.000000
730 C 28.000000 28.000000 28.000000 C.2 1 VAL 0.000000
731 C 28.000000 28.000000 32.000000 C.2 1 VAL 0.000000
732 C 28.000000 28.000000 36.000000 C.2 1 VAL 0.000000
733 C 28.000000 32.000000 0.000000 C.2 1 VAL 0.000000
734 C 28.000000 32.000000 4.000000 C.2 1 VAL 0.000000
735 C 28.000000 32.000000 8.000000 C.2 1 VAL 0.000000
736 C 28.000000 32.000000 12.000000 C.2 1 VAL 0.000000
737 C 28.000000 32.000000 16.000000 C.2 1 VAL 0.000000
738 C 28.000000 32.000000 20.000000 C.2 1 VAL 0.000000
739 C 28.000000 32.000000 24.000000 C.2 1 VAL 0.000000
740 C 28.000000 32.000000 28.000000 C.2 1 VAL 0.000000
741 C 28.000000 32.000000 32.000000 C.2 1 VAL 0.000000
742 C 28.000000 32.000000 36.000000 C.2 1 VAL 0.000000
743 C 28.000000 36.000000 0.000000 C.2 1 VAL 0.000000
744 C 28.000000 36.000000 4.000000 C.2 1 VAL 0.000000
745 C 28.000000 36.000000 8.000000 C.2 1 VAL 0.000000
746 C 28.000000 36.000000 12.000000 C.2 1 VAL 0.000000
747 C 28.000000 36.000000 16.000000 C.2 1 VAL 0.000000
748 C 28.000000 36.000000 20.000000 C.2 1 VAL 0.000000
749 C 28.000000 36.000000 24.000000 C.2 1 VAL 0.000000
750 C 28.000000 36.000000 28.000000 C.2 1 VAL 0.000000
751 C 28.000000 36.000000 32.000000 C.2 1 VAL 0.000000
752 C 28.000000 36.000000 36.000000 C.2 1 VAL 0.000000
753 C 32.000000 0.000000 0.000000 C.2 1 VAL 0.000000
754 C 32.000000 0.000000 4.000000 C.2 1 VAL 0.000000
755 C 32.000000 0.000000 8.000000 C.2 1 VAL 0.000000
756 C 32.000000 0.000000 12.000000 C.2 1 VAL 0.000000
757 C 32.000000 0.000000 16.000000 C.2 1 VAL 0.000000
758 C 32.000000 0.000000 20.000000 C.2 1 VAL 0.000000
759 C 32.000000 0.000000 24.000000 C.2 1 VAL 0.000000
760 C 32.000000 0.000000 28.000000 C.2 1 VAL 0.000000
761 C 32.000000 0.000000 32.000000 C.2 1 VAL 0.000000
762 C 32.000000 0.000000 36.000000 C.2 1 VAL 0.000000
763 C 32.000000 4.000000 0.000000 C.2 1 VAL 0.000000
764 C 32.000000 4.000000 4.000000 C.2 1 VAL 0.000000
765 C 32.000000 4.000000 8.000000 C.2 1 VAL 0.000000
766 C 32.000000 4.000000 12.000000 C.2 1 VAL 0.000000
767 C 32.000000 4.000000 16.000000 C.2 1 VAL 0.000000
768 C 32.000000 4.000000 20.000000 C.2 1 VAL 0.000000
769 C 32.000000 4.000000 24.000000 C.2 1 VAL 0.000000
770 C 32.000000 4.000000 28.000000 C.2 1 VAL 0.000000
771 C 32.000000 4.000000 32.000000 C.2 1 VAL 0.000000
772 C 32.000000 4.000000 36.000000 C.2 1 VAL 0.000000
773 C 32.000000 8.000000 0.000000 C.2 1 VAL 0.000000
774 C 32.000000 8.000000 4.000000 C.2 1 VAL 0.000000
775 C 32.000000 8.000000 8.000000 C.2 1 VAL 0.000000
776 C 32.000000 8.000000 12.000000 C.2 1 VAL 0.000000
777 C 32.000000 8.000000 16.000000 C.2 1 VAL 0.000000
778 C 32.000000 8.000000 20.000000 C.2 1 VAL 0.000000
779 C 32.000000 8.000000 24.000000 C.2 1 VAL 0.000000
780 C 32.000000 8.000000 28.000000 C.2 1 VAL 0.000000
781 C 32.000000 8.000000 32.000000 C.2 1 VAL 0.000000
782 C 32.000000 8.000000 36.000000 C.2 1 VAL 0.000000
783 C 32.000000 12.000000 0.000000 C.2 1 VAL 0.000000
784 C 32.000000 12.000000 4.000000 C.2 1 VAL 0.000000
785 C 32.000000 12.000000 8.000000 C.2 1 VAL 0.000000
786 C 32.000000 12.000000 28.000000 C.2 1 VAL 0.000000
787 C 32.000000 12.000000 32.000000 C.2 1 VAL 0.000000
788 C 32.000000 12.000000 36.000000 C.2 1 VAL 0.000000
789 C 32.000000 16.000000 0.000000 C.2 1 VAL 0.000000
790 C 32.000000 16.000000 4.000000 C.2 1 VAL 0.000000
791 C 32.000000 16.000000 8.000000 C.2 1 VAL 0.000000
792 C 32.000000 16.000000 28.000000 C.2 1 VAL 0.000000
793 C 32.000000 16.000000 32.000000 C.2 1 VAL 0.000000
794 C 32.000000 16.000000 36.000000 C.2 1 VAL 0.000000
795 C 32.000000 20.000000 0.000000 C.2 1 VAL 0.000000
796 C 32.000000 20.000000 4.000000 C.2 1 VAL 0.000000
797 C 32.000000 20.000000 8.000000 C.2 1 VAL 0.000000
798 C 32.000000 20.000000 28.000000 C.2 1 VAL 0.000000
799 C 32.000000 20.000000 32.000000 C.2 1 VAL 0.000000
800 C 32.000000 20.000000 36.000000 C.2 1 VAL 0.000000
801 C 32.000000 24.000000 0.000000 C.2 1 VAL 0.000000
802 C 32.000000 24.000000 4.000000 C.2 1 VAL 0.000000
803 C 32.000000 24.000000 8.000000 C.2 1 VAL 0.000000
804 C 32.000000 24.000000 28.000000 C.2 1 VAL 0.000000
805 C 32.000000 24.000000 32.000000 C.2 1 VAL 0.000000
806 C 32.000000 24.000000 36.000000 C.2 1 VAL 0.000000
807 C 32.000000 28.000000 0.000000 C.2 1 VAL 0.000000
808 C 32.000000 28.000000 4.000000 C.2 1 VAL 0.000000
809 C 32.000000 28.000000 8.000000 C.2 1 VAL 0.000000
810 C 32.000000 28.000000 12.000000 C.2 1 VAL 0.000000
811 C 32.000000 28.000000 16.000000 C.2 1 VAL 0.000000
812 C 32.000000 28.000000 20.000000 C.2 1 VAL 0.000000
813 C 32.000000 28.000000 24.000000 C.2 1 VAL 0.000000
814 C 32.000000 28.000000 28.000000 C.2 1 VAL 0.000000
815 C 32.000000 28.000000 32.000000 C.2 1 VAL 0.000000
816 C 32.000000 28.000000 36.000000 C.2 1 VAL 0.000000
817 C 32.000000 32.000000 0.000000 C.2 1 VAL 0.000000
818 C 32.000000 32.000000 4.000000 C.2 1 VAL 0.000000
819 C 32.000000 32.000000 8.000000 C.2 1 VAL 0.000000
820 C 32.000000 32.000000 12.000000 C.2 1 VAL 0.000000
821 C 32.000000 32.000000 16.000000 C.2 1 VAL 0.000000
822 C 32.000000 32.000000 20.000000 C.2 1 VAL 0.000000
823 C 32.000000 32.000000 24.000000 C.2 1 VAL 0.000000
824 C 32.000000 32.000000 28.000000 C.2 1 VAL 0.000000
825 C 32.000000 32.000000 32.000000 C.2 1 VAL 0.000000
826 C 32.000000 32.000000 36.000000 C.2 1 VAL 0.000000
827 C 32.000000 36.000000 0.000000 C.2 1 VAL 0.000000
828 C 32.000000 36.000000 4.000000 C.2 1 VAL 0.000000
829 C 32.000000 36.000000 8.000000 C.2 1 VAL 0.000000
830 C 32.000000 36.000000 12.000000 C.2 1 VAL 0.000000
831 C 32.000000 36.000000 16.000000 C.2 1 VAL 0.000000
832 C 32.000000 36.000000 20.000000 C.2 1 VAL 0.000000
833 C 32.000000 36.000000 24.000000 C.2 1 VAL 0.000000
834 C 32.000000 36.000000 28.000000 C.2 1 VAL 0.000000
835 C 32.000000 36.000000 32.000000 C.2 1 VAL 0.000000
836 C 32.000000 36.000000 36.000000 C.2 1 VAL 0.000000
837 C 36.000000 0.000000 0.000000 C.2 1 VAL 0.000000
838 C 36.000000 0.000000 4.000000 C.2 1 VAL 0.000000
839 C 36.000000 0.000000 8.000000 C.2 1 VAL 0.000000
840 C 36.000000 0.000000 12.000000 C.2 1 VAL 0.000000
841 C 36.000000 0.000000 16.000000 C.2 1 VAL 0.000000
842 C 36.000000 0.000000 20.000000 C.2 1 VAL 0.000000
843 C 36.000000 0.000000 24.000000 C.2 1 VAL 0.000000
844 C 36.000000 0.000000 28.000000 C.2 1 VAL 0.000000
845 C 36.000000 0.000000 32.000000 C.2 1 VAL 0.000000
846 C 36.000000 0.000000 36.000000 C.2 1 VAL 0.000000
847 C 36.000000 4.000000 0.000000 C.2 1 VAL 0.000000
848 C 36.000000 4.000000 4.000000 C.2 1 VAL 0.000000
849 C 36.000000 4.000000 8.000000 C.2 1 VAL 0.000000
850 C 36.000000 4.000000 12.000000 C.2 1 VAL 0.000000
851 C 36.000000 4.000000 16.000000 C.2 1 VAL 0.000000
852 C 36.000000 4.000000 20.000000 C.2 1 VAL 0.000000
853 C 36.000000 4.000000 24.000000 C.2 1 VAL 0.000000
854 C 36.000000 4.000000 28.000000 C.2 1 VAL 0.000000
855 C 36.000000 4.000000 32.000000 C.2 1 VAL 0.000000
856 C 36.000000 4.000000 36.000000 C.2 1 VAL 0.000000
857 C 36.000000 8.000000 0.000000 C.2 1 VAL 0.000000
858 C 36.000000 8.000000 4.000000 C.2 1 VAL 0.000000
859 C 36.000000 8.000000 8.000000 C.2 1 VAL 0.000000
860 C 36.000000 8.000000 12.000000 C.2 1 VAL 0.000000
861 C 36.000000 8.000000 16.000000 C.2 1 VAL 0.000000
862 C 36.000000 8.000000 20.000000 C.2 1 VAL 0.000000
863 C 36.000000 8.000000 24.000000 C.2 1 VAL 0.000000
864 C 36.000000 8.000000 28.000000 C.2 1 VAL 0.000000
865 C 36.000000 8.000000 32.000000 C.2 1 VAL 0.000000
866 C 36.000000 8.000000 36.000000 C.2 1 VAL 0.000000
867 C 36.000000 12.000000 0.000000 C.2 1 VAL 0.000000
868 C 36.000000 12.000000 4.000000 C.2 1 VAL 0.000000
869 C 36.000000 12.000000 8.000000 C.2 1 VAL 0.000000
870 C 36.000000 12.000000 28.000000 C.2 1 VAL 0.000000
871 C 36.000000 12.000000 32.000000 C.2 1 VAL 0.000000
872 C 36.000000 12.000000 36.000000 C.2 1 VAL 0.000000
873 C 36.000000 16.000000 0.000000 C.2 1 VAL 0.000000
874 C 36.000000 16.000000 4.000000 C.2 1 VAL 0.000000
875 C 36.000000 16.000000 8.000000 C.2 1 VAL 0.000000
876 C 36.000000 16.000000 28.000000 C.2 1 VAL 0.000000
877 C 36.000000 16.000000 32.000000 C.2 1 VAL 0.000000
878 C 36.000000 16.000000 36.000000 C.2 1 VAL 0.000000
879 C 36.000000 20.000000 0.000000 C.2 1 VAL 0.000000
880 C 36.000000 20.000000 4.000000 C.2 1 VAL 0.000000
881 C 36.000000 20.000000 8.000000 C.2 1 VAL 0.000000
882 C 36.000000 20.000000 28.000000 C.2 1 VAL 0.000000
883 C 36.000000 20.000000 32.000000 C.2 1 VAL 0.000000
884 C 36.000000 20.000000 36.000000 C.2 1 VAL 0.000000
885 C 36.000000 24.000000 0.000000 C.2 1 VAL 0.000000
886 C 36.000000 24.000000 4.000000 C.2 1 VAL 0.000000
887 C 36.000000 24.000000 8.000000 C.2 1 VAL 0.000000
888 C 36.000000 24.000000 28.000000 C.2 1 VAL 0.000000
889 C 36.000000 24.000000 32.000000 C.2 1 VAL 0.000000
890 C 36.000000 24.000000 36.000000 C.2 1 VAL 0.000000
891 C 36.000000 28.000000 0.000000 C.2 1 VAL 0.000000
892 C 36.000000 28.000000 4.000000 C.2 1 VAL 0.000000
893 C 36.000000 28.000000 8.000000 C.2 1 VAL 0.000000
894 C 36.000000 28.000000 12.000000 C.2 1 VAL 0.000000
895 C 36.000000 28.000000 16.000000 C.2 1 VAL 0.000000
896 C 36.000000 28.000000 20.000000 C.2 1 VAL 0.000000
897 C 36.000000 28.000000 24.000000 C.2 1 VAL 0.000000
898 C 36.000000 28.000000 28.000000 C.2 1 VAL 0.000000
899 C 36.000000 28.000000 32.000000 C.2 1 VAL 0.000000
900 C 36.000000 28.000000 36.000000 C.2 1 VAL 0.000000
901 C 36.000000 32.000000 0.000000 C.2 1 VAL 0.000000
902 C 36.000000 32.000000 4.000000 C.2 1 VAL 0.000000
903 C 36.000000 32.000000 8.000000 C.2 1 VAL 0.000000
904 C 36.000000 32.000000 12.000000 C.2 1 VAL 0.000000
905 C 36.000000 32.000000 16.000000 C.2 1 VAL 0.000000
906 C 36.000000 32.000000 20.000000 C.2 1 VAL 0.000000
907 C 36.000000 32.000000 24.000000 C.2 1 VAL 0.000000
908 C 36.000000 32.000000 28.000000 C.2 1 VAL 0.000000
909 C 36.000000 32.000000 32.000000 C.2 1 VAL 0.000000
910 C 36.000000 32.000000 36.000000 C.2 1 VAL 0.000000
911 C 36.000000 36.000000 0.000000 C.2 1 VAL 0.000000
912 C 36.000000 36.000000 4.000000 C.2 1 VAL 0.000000
913 C 36.000000 36.000000 8.000000 C.2 1 VAL 0.000000
914 C 36.000000 36.000000 12.000000 C.2 1 VAL 0.000000
915 C 36.000000 36.000000 16.000000 C.2 1 VAL 0.000000
916 C 36.000000 36.000000 20.000000 C.2 1 VAL 0.000000
917 C 36.000000 36.000000 24.000000 C.2 1 VAL 0.000000
918 C 36.000000 36.000000 28.000000 C.2 1 VAL 0.000000
919 C 36.000000 36.000000 32.000000 C.2 1 VAL 0.000000
920 C 36.000000 36.000000 36.000000 C.2 1 VAL 0.000000
