@<TRIPOS>MOLECULE
Custom
580 0
Custom
CustomCharges

@<TRIPOS>ATOM
1 C 0.000000 0.000000 0.000000 C.2 1 VAL 0.000000
2 C 0.000000 0.000000 4.000000 C.2 1 VAL 0.000000
3 C 0.000000 0.000000 8.000000 C.2 1 VAL 0.000000
4 C 0.000000 0.000000 12.000000 C.2 1 VAL 0.000000
5 C 0.000000 0.000000 16.000000 C.2 1 VAL 0.000000
6 C 0.000000 0.000000 20.000000 C.2 1 VAL 0.000000
7 C 0.000000 0.000000 24.000000 C.2 1 VAL 0.000000
8 C 0.000000 0.000000 28.000000 C.2 1 VAL 0.000000
9 C 0.000000 0.000000 32.000000 C.2 1 VAL 0.000000
10 C 0.000000 0.000000 36.000000 C.2 1 VAL 0.000000
11 C 0.000000 4.000000 0.000000 C.2 1 VAL 0.000000
12 C 0.000000 4.000000 4.000000 C.2 1 VAL 0.000000
13 C 0.000000 4.000000 8.000000 C.2 1 VAL 0.000000
14 C 0.000000 4.000000 12.000000 C.2 1 VAL 0.000000
15 C 0.000000 4.000000 16.000000 C.2 1 VAL 0.000000
16 C 0.000000 4.000000 20.000000 C.2 1 VAL 0.000000
17 C 0.000000 4.000000 24.000000 C.2 1 VAL 0.000000
18 C 0.000000 4.000000 28.000000 C.2 1 VAL 0.000000
19 C 0.000000 4.000000 32.000000 C.2 1 VAL 0.000000
20 C 0.000000 4.000000 36.000000 C.2 1 VAL 0.000000
21 C 0.000000 8.000000 0.000000 C.2 1 VAL 0.000000
22 C 0.000000 8.000000 4.000000 C.2 1 VAL 0.000000
23 C 0.000000 8.000000 8.000000 C.2 1 VAL 0.000000
24 C 0.000000 8.000000 12.000000 C.2 1 VAL 0.000000
25 C 0.000000 8.000000 16.000000 C.2 1 VAL 0.000000
26 C 0.000000 8.000000 20.000000 C.2 1 VAL 0.000000
27 C 0.000000 8.000000 24.000000 C.2 1 VAL 0.000000
28 C 0.000000 8.000000 28.000000 C.2 1 VAL 0.000000
29 C 0.000000 8.000000 32.000000 C.2 1 VAL 0.000000
30 C 0.000000 8.000000 36.000000 C.2 1 VAL 0.000000
31 C 0.000000 12.000000 0.000000 C.2 1 VAL 0.000000
32 C 0.000000 12.000000 4.000000 C.2 1 VAL 0.000000
33 C 0.000000 12.000000 8.000000 C.2 1 VAL 0.000000
34 C 0.000000 12.000000 12.000000 C.2 1 VAL 0.000000
35 C 0.000000 12.000000 16.000000 C.2 1 VAL 0.000000
36 C 0.000000 12.000000 20.000000 C.2 1 VAL 0.000000
37 C 0.000000 12.000000 24.000000 C.2 1 VAL 0.000000
38 C 0.000000 12.000000 28.000000 C.2 1 VAL 0.000000
39 C 0.000000 12.000000 32.000000 C.2 1 VAL 0.000000
40 C 0.000000 12.000000 36.000000 C.2 1 VAL 0.000000
41 C 0.000000 16.000000 0.000000 C.2 1 VAL 0.000000
42 C 0.000000 16.000000 4.000000 C.2 1 VAL 0.000000
43 C 0.000000 16.000000 8.000000 C.2 1 VAL 0.000000
44 C 0.000000 16.000000 12.000000 C.2 1 VAL 0.000000
45 C 0.000000 16.000000 16.000000 C.2 1 VAL 0.000000
46 C 0.000000 16.000000 20.000000 C.2 1 VAL 0.000000
47 C 0.000000 16.000000 24.000000 C.2 1 VAL 0.000000
48 C 0.000000 16.000000 28.000000 C.2 1 VAL 0.000000
49 C 0.000000 16.000000 32.000000 C.2 1 VAL 0.000000
50 C 0.000000 16.000000 36.000000 C.2 1 VAL 0.000000
51 C 0.000000 20.000000 0.000000 C.2 1 VAL 0.000000
52 C 0.000000 20.000000 4.000000 C.2 1 VAL 0.000000
53 C 0.000000 20.000000 8.000000 C.2 1 VAL 0.000000
54 C 0.000000 20.000000 12.000000 C.2 1 VAL 0.000000
55 C 0.000000 20.000000 16.000000 C.2 1 VAL 0.000000
56 C 0.000000 20.000000 20.000000 C.2 1 VAL 0.000000
57 C 0.000000 20.000000 24.000000 C.2 1 VAL 0.000000
58 C 0.000000 20.000000 28.000000 C.2 1 VAL 0.000000
59 C 0.000000 20.000000 32.000000 C.2 1 VAL 0.000000
60 C 0.000000 20.000000 36.000000 C.2 1 VAL 0.000000
61 C 0.000000 24.000000 0.000000 C.2 1 VAL 0.000000
62 C 0.000000 24.000000 4.000000 C.2 1 VAL 0.000000
63 C 0.000000 24.000000 8.000000 C.2 1 VAL 0.000000
64 C 0.000000 24.000000 12.000000 C.2 1 VAL 0.000000
65 C 0.000000 24.000000 16.000000 C.2 1 VAL 0.000000
66 C 0.000000 24.000000 20.000000 C.2 1 VAL 0.000000
67 C 0.000000 24.000000 24.000000 C.2 1 VAL 0.000000
68 C 0.000000 24.000000 28.000000 C.2 1 VAL 0.000000
69 C 0.000000 24.000000 32.000000 C.2 1 VAL 0.000000
70 C 0.000000 24.000000 36.000000 C.2 1 VAL 0.000000
71 C 0.000000 28.000000 0.000000 C.2 1 VAL 0.000000
72 C 0.000000 28.000000 4.000000 C.2 1 VAL 0.000000
73 C 0.000000 28.000000 8.000000 C.2 1 VAL 0.000000
74 C 0.000000 28.000000 12.000000 C.2 1 VAL 0.000000
75 C 0.000000 28.000000 16.000000 C.2 1 VAL 0.000000
76 C 0.000000 28.000000 20.000000 C.2 1 VAL 0.000000
77 C 0.000000 28.000000 24.000000 C.2 1 VAL 0.000000
78 C 0.000000 28.000000 28.000000 C.2 1 VAL 0.000000
79 C 0.000000 28.000000 32.000000 C.2 1 VAL 0.000000
80 C 0.000000 28.000000 36.000000 C.2 1 VAL 0.000000
81 C 0.000000 32.000000 0.000000 C.2 1 VAL 0.000000
82 C 0.000000 32.000000 4.000000 C.2 1 VAL 0.000000
83 C 0.000000 32.000000 8.000000 C.2 1 VAL 0.000000
84 C 0.000000 32.000000 12.000000 C.2 1 VAL 0.000000
85 C 0.000000 32.000000 16.000000 C.2 1 VAL 0.000000
86 C 0.000000 32.000000 20.000000 C.2 1 VAL 0.000000
87 C 0.000000 32.000000 24.000000 C.2 1 VAL 0.000000
88 C 0.000000 32.000000 28.000000 C.2 1 VAL 0.000000
89 C 0.000000 32.000000 32.000000 C.2 1 VAL 0.000000
90 C 0.000000 32.000000 36.000000 C.2 1 VAL 0.000000
91 C 0.000000 36.000000 0.000000 C.2 1 VAL 0.000000
92 C 0.000000 36.000000 4.000000 C.2 1 VAL 0.000000
93 C 0.000000 36.000000 8.000000 C.2 1 VAL 0.000000
94 C 0.000000 36.000000 12.000000 C.2 1 VAL 0.000000
95 C 0.000000 36.000000 16.000000 C.2 1 VAL 0.000000
96 C 0.000000 36.000000 20.000000 C.2 1 VAL 0.000000
97 C 0.000000 36.000000 24.000000 C.2 1 VAL 0.000000
98 C 0.000000 36.000000 28.000000 C.2 1 VAL 0.000000
99 C 0.000000 36.000000 32.000000 C.2 1 VAL 0.000000
100 C 0.000000 36.000000 36.000000 C.2 1 VAL 0.000000
101 C 4.000000 0.000000 0.000000 C.2 1 VAL 0.000000
102 C 4.000000 0.000000 4.000000 C.2 1 VAL 0.000000
103 C 4.000000 0.000000 8.000000 C.2 1 VAL 0.000000
104 C 4.000000 0.000000 12.000000 C.2 1 VAL 0.000000
105 C 4.000000 0.000000 16.000000 C.2 1 VAL 0.000000
106 C 4.000000 0.000000 20.000000 C.2 1 VAL 0.000000
107 C 4.000000 0.000000 24.000000 C.2 1 VAL 0.000000
108 C 4.000000 0.000000 28.000000 C.2 1 VAL 0.000000
109 C 4.000000 0.000000 32.000000 C.2 1 VAL 0.000000
110 C 4.000000 0.000000 36.000000 C.2 1 VAL 0.000000
111 C 4.000000 4.000000 0.000000 C.2 1 VAL 0.000000
112 C 4.000000 4.000000 4.000000 C.2 1 VAL 0.000000
113 C 4.000000 4.000000 8.000000 C.2 1 VAL 0.000000
114 C 4.000000 4.000000 12.000000 C.2 1 VAL 0.000000
115 C 4.000000 4.000000 16.000000 C.2 1 VAL 0.000000
116 C 4.000000 4.000000 20.000000 C.2 1 VAL 0.000000
117 C 4.000000 4.000000 24.000000 C.2 1 VAL 0.000000
118 C 4.000000 4.000000 28.000000 C.2 1 VAL 0.000000
119 C 4.000000 4.000000 32.000000 C.2 1 VAL 0.000000
120 C 4.000000 4.000000 36.000000 C.2 1 VAL 0.000000
121 C 4.000000 8.000000 0.000000 C.2 1 VAL 0.000000
122 C 4.000000 8.000000 4.000000 C.2 1 VAL 0.000000
123 C 4.000000 8.000000 8.000000 C.2 1 VAL 0.000000
124 C 4.000000 8.000000 12.000000 C.2 1 VAL 0.000000
125 C 4.000000 8.000000 16.000000 C.2 1 VAL 0.000000
126 C 4.000000 8.000000 20.000000 C.2 1 VAL 0.000000
127 C 4.000000 8.000000 24.000000 C.2 1 VAL 0.000000
128 C 4.000000 8.000000 28.000000 C.2 1 VAL 0.000000
129 C 4.000000 8.000000 32.000000 C.2 1 VAL 0.000000
130 C 4.000000 8.000000 36.000000 C.2 1 VAL 0.000000
131 C 4.000000 12.000000 0.000000 C.2 1 VAL 0.000000
132 C 4.000000 12.000000 4.000000 C.2 1 VAL 0.000000
133 C 4.000000 12.000000 8.000000 C.2 1 VAL 0.000000
134 C 4.000000 12.000000 12.000000 C.2 1 VAL 0.000000
135 C 4.000000 12.000000 16.000000 C.2 1 VAL 0.000000
136 C 4.000000 12.000000 20.000000 C.2 1 VAL 0.000000
137 C 4.000000 12.000000 24.000000 C.2 1 VAL 0.000000
138 C 4.000000 12.000000 28.000000 C.2 1 VAL 0.000000
139 C 4.000000 12.000000 32.000000 C.2 1 VAL 0.000000
140 C 4.000000 12.000000 36.000000 C.2 1 VAL 0.000000
141 C 4.000000 16.000000 0.000000 C.2 1 VAL 0.000000
142 C 4.000000 16.000000 4.000000 C.2 1 VAL 0.000000
143 C 4.000000 16.000000 8.000000 C.2 1 VAL 0.000000
144 C 4.000000 16.000000 12.000000 C.2 1 VAL 0.000000
145 C 4.000000 16.000000 16.000000 C.2 1 VAL 0.000000
146 C 4.000000 16.000000 20.000000 C.2 1 VAL 0.000000
147 C 4.000000 16.000000 24.000000 C.2 1 VAL 0.000000
148 C 4.000000 16.000000 28.000000 C.2 1 VAL 0.000000
149 C 4.000000 16.000000 32.000000 C.2 1 VAL 0.000000
150 C 4.000000 16.000000 36.000000 C.2 1 VAL 0.000000
151 C 4.000000 20.000000 0.000000 C.2 1 VAL 0.000000
152 C 4.000000 20.000000 4.000000 C.2 1 VAL 0.000000
153 C 4.000000 20.000000 8.000000 C.2 1 VAL 0.000000
154 C 4.000000 20.000000 12.000000 C.2 1 VAL 0.000000
155 C 4.000000 20.000000 16.000000 C.2 1 VAL 0.000000
156 C 4.000000 20.000000 20.000000 C.2 1 VAL 0.000000
157 C 4.000000 20.000000 24.000000 C.2 1 VAL 0.000000
158 C 4.000000 20.000000 28.000000 C.2 1 VAL 0.000000
159 C 4.000000 20.000000 32.000000 C.2 1 VAL 0.000000
160 C 4.000000 20.000000 36.000000 C.2 1 VAL 0.000000
161 C 4.000000 24.000000 0.000000 C.2 1 VAL 0.000000
162 C 4.000000 24.000000 4.000000 C.2 1 VAL 0.000000
163 C 4.000000 24.000000 8.000000 C.2 1 VAL 0.000000
164 C 4.000000 24.000000 12.000000 C.2 1 VAL 0.000000
165 C 4.000000 24.000000 16.000000 C.2 1 VAL 0.000000
166 C 4.000000 24.000000 20.000000 C.2 1 VAL 0.000000
167 C 4.000000 24.000000 24.000000 C.2 1 VAL 0.000000
168 C 4.000000 24.000000 28.000000 C.2 1 VAL 0.000000
169 C 4.000000 24.000000 32.000000 C.2 1 VAL 0.000000
170 C 4.000000 24.000000 36.000000 C.2 1 VAL 0.000000
171 C 4.000000 28.000000 0.000000 C.2 1 VAL 0.000000
172 C 4.000000 28.000000 4.000000 C.2 1 VAL 0.000000
173 C 4.000000 28.000000 8.000000 C.2 1 VAL 0.000000
174 C 4.000000 28.000000 12.000000 C.2 1 VAL 0.000000
175 C 4.000000 28.000000 16.000000 C.2 1 VAL 0.000000
176 C 4.000000 28.000000 20.000000 C.2 1 VAL 0.000000
177 C 4.000000 28.000000 24.000000 C.2 1 VAL 0.000000
178 C 4.000000 28.000000 28.000000 C.2 1 VAL 0.000000
179 C 4.000000 28.000000 32.000000 C.2 1 VAL 0.000000
180 C 4.000000 28.000000 36.000000 C.2 1 VAL 0.000000
181 C 4.000000 32.000000 0.000000 C.2 1 VAL 0.000000
182 C 4.000000 32.000000 4.000000 C.2 1 VAL 0.000000
183 C 4.000000 32.000000 8.000000 C.2 1 VAL 0.000000
184 C 4.000000 32.000000 12.000000 C.2 1 VAL 0.000000
185 C 4.000000 32.000000 16.000000 C.2 1 VAL 0.000000
186 C 4.000000 32.000000 20.000000 C.2 1 VAL 0.000000
187 C 4.000000 32.000000 24.000000 C.2 1 VAL 0.000000
188 C 4.000000 32.000000 28.000000 C.2 1 VAL 0.000000
189 C 4.000000 32.000000 32.000000 C.2 1 VAL 0.000000
190 C 4.000000 32.000000 36.000000 C.2 1 VAL 0.000000
191 C 4.000000 36.000000 0.000000 C.2 1 VAL 0.000000
192 C 4.000000 36.000000 4.000000 C.2 1 VAL 0.000000
193 C 4.000000 36.000000 8.000000 C.2 1 VAL 0.000000
194 C 4.000000 36.000000 12.000000 C.2 1 VAL 0.000000
195 C 4.000000 36.000000 16.000000 C.2 1 VAL 0.000000
196 C 4.000000 36.000000 20.000000 C.2 1 VAL 0.000000
197 C 4.000000 36.000000 24.000000 C.2 1 VAL 0.000000
198 C 4.000000 36.000000 28.000000 C.2 1 VAL 0.000000
199 C 4.000000 36.000000 32.000000 C.2 1 VAL 0.000000
200 C 4.000000 36.000000 36.000000 C.2 1 VAL 0.000000
201 C 8.000000 0.000000 0.000000 C.2 1 VAL 0.000000
202 C 8.000000 0.000000 4.000000 C.2 1 VAL 0.000000
203 C 8.000000 0.000000 8.000000 C.2 1 VAL 0.000000
204 C 8.000000 0.000000 12.000000 C.2 1 VAL 0.000000
205 C 8.000000 0.000000 16.000000 C.2 1 VAL 0.000000
206 C 8.000000 0.000000 20.000000 C.2 1 VAL 0.000000
207 C 8.000000 0.000000 24.000000 C.2 1 VAL 0.000000
208 C 8.000000 0.000000 28.000000 C.2 1 VAL 0.000000
209 C 8.000000 0.000000 32.000000 C.2 1 VAL 0.000000
210 C 8.000000 0.000000 36.000000 C.2 1 VAL 0.000000
211 C 8.000000 4.000000 0.000000 C.2 1 VAL 0.000000
212 C 8.000000 4.000000 4.000000 C.2 1 VAL 0.000000
213 C 8.000000 4.000000 8.000000 C.2 1 VAL 0.000000
214 C 8.000000 4.000000 12.000000 C.2 1 VAL 0.000000
215 C 8.000000 4.000000 16.000000 C.2 1 VAL 0.000000
216 C 8.000000 4.000000 20.000000 C.2 1 VAL 0.000000
217 C 8.000000 4.000000 24.000000 C.2 1 VAL 0.000000
218 C 8.000000 4.000000 28.000000 C.2 1 VAL 0.000000
219 C 8.000000 4.000000 32.000000 C.2 1 VAL 0.000000
220 C 8.000000 4.000000 36.000000 C.2 1 VAL 0.000000
221 C 8.000000 8.000000 0.000000 C.2 1 VAL 0.000000
222 C 8.000000 8.000000 4.000000 C.2 1 VAL 0.000000
223 C 8.000000 8.000000 8.000000 C.2 1 VAL 0.000000
224 C 8.000000 8.000000 12.000000 C.2 1 VAL 0.000000
225 C 8.000000 8.000000 16.000000 C.2 1 VAL 0.000000
226 C 8.000000 8.000000 20.000000 C.2 1 VAL 0.000000
227 C 8.000000 8.000000 24.000000 C.2 1 VAL 0.000000
228 C 8.000000 8.000000 28.000000 C.2 1 VAL 0.000000
229 C 8.000000 8.000000 32.000000 C.2 1 VAL 0.000000
230 C 8.000000 8.000000 36.000000 C.2 1 VAL 0.000000
231 C 8.000000 12.000000 0.000000 C.2 1 VAL 0.000000
232 C 8.000000 12.000000 4.000000 C.2 1 VAL 0.000000
233 C 8.000000 12.000000 8.000000 C.2 1 VAL 0.000000
234 C 8.000000 12.000000 12.000000 C.2 1 VAL 0.000000
235 C 8.000000 12.000000 16.000000 C.2 1 VAL 0.000000
236 C 8.000000 12.000000 20.000000 C.2 1 VAL 0.000000
237 C 8.000000 12.000000 24.000000 C.2 1 VAL 0.000000
238 C 8.000000 12.000000 28.000000 C.2 1 VAL 0.000000
239 C 8.000000 12.000000 32.000000 C.2 1 VAL 0.000000
240 C 8.000000 12.000000 36.000000 C.2 1 VAL 0.000000
241 C 8.000000 16.000000 0.000000 C.2 1 VAL 0.000000
242 C 8.000000 16.000000 4.000000 C.2 1 VAL 0.000000
243 C 8.000000 16.000000 8.000000 C.2 1 VAL 0.000000
244 C 8.000000 16.000000 12.000000 C.2 1 VAL 0.000000
245 C 8.000000 16.000000 16.000000 C.2 1 VAL 0.000000
246 C 8.000000 16.000000 20.000000 C.2 1 VAL 0.000000
247 C 8.000000 16.000000 24.000000 C.2 1 VAL 0.000000
248 C 8.000000 16.000000 28.000000 C.2 1 VAL 0.000000
249 C 8.000000 16.000000 32.000000 C.2 1 VAL 0.000000
250 C 8.000000 16.000000 36.000000 C.2 1 VAL 0.000000
251 C 8.000000 20.000000 0.000000 C.2 1 VAL 0.000000
252 C 8.000000 20.000000 4.000000 C.2 1 VAL 0.000000
253 C 8.000000 20.000000 8.000000 C.2 1 VAL 0.000000
254 C 8.000000 20.000000 12.000000 C.2 1 VAL 0.000000
255 C 8.000000 20.000000 16.000000 C.2 1 VAL 0.000000
256 C 8.000000 20.000000 20.000000 C.2 1 VAL 0.000000
257 C 8.000000 20.000000 24.000000 C.2 1 VAL 0.000000
258 C 8.000000 20.000000 28.000000 C.2 1 VAL 0.000000
259 C 8.000000 20.000000 32.000000 C.2 1 VAL 0.000000
260 C 8.000000 20.000000 36.000000 C.2 1 VAL 0.000000
261 C 8.000000 24.000000 0.000000 C.2 1 VAL 0.000000
262 C 8.000000 24.000000 4.000000 C.2 1 VAL 0.000000
263 C 8.000000 24.000000 8.000000 C.2 1 VAL 0.000000
264 C 8.000000 24.000000 12.000000 C.2 1 VAL 0.000000
265 C 8.000000 24.000000 16.000000 C.2 1 VAL 0.000000
266 C 8.000000 24.000000 20.000000 C.2 1 VAL 0.000000
267 C 8.000000 24.000000 24.000000 C.2 1 VAL 0.000000
268 C 8.000000 24.000000 28.000000 C.2 1 VAL 0.000000
269 C 8.000000 24.000000 32.000000 C.2 1 VAL 0.000000
270 C 8.000000 24.000000 36.000000 C.2 1 VAL 0.000000
271 C 8.000000 28.000000 0.000000 C.2 1 VAL 0.000000
272 C 8.000000 28.000000 4.000000 C.2 1 VAL 0.000000
273 C 8.000000 28.000000 8.000000 C.2 1 VAL 0.000000
274 C 8.000000 28.000000 12.000000 C.2 1 VAL 0.000000
275 C 8.000000 28.000000 16.000000 C.2 1 VAL 0.000000
276 C 8.000000 28.000000 20.000000 C.2 1 VAL 0.000000
277 C 8.000000 28.000000 24.000000 C.2 1 VAL 0.000000
278 C 8.000000 28.000000 28.000000 C.2 1 VAL 0.000000
279 C 8.000000 28.000000 32.000000 C.2 1 VAL 0.000000
280 C 8.000000 28.000000 36.000000 C.2 1 VAL 0.000000
281 C 8.000000 32.000000 0.000000 C.2 1 VAL 0.000000
282 C 8.000000 32.000000 4.000000 C.2 1 VAL 0.000000
283 C 8.000000 32.000000 8.000000 C.2 1 VAL 0.000000
284 C 8.000000 32.000000 12.000000 C.2 1 VAL 0.000000
285 C 8.000000 32.000000 16.000000 C.2 1 VAL 0.000000
286 C 8.000000 32.000000 20.000000 C.2 1 VAL 0.000000
287 C 8.000000 32.000000 24.000000 C.2 1 VAL 0.000000
288 C 8.000000 32.000000 28.000000 C.2 1 VAL 0.000000
289 C 8.000000 32.000000 32.000000 C.2 1 VAL 0.000000
290 C 8.000000 32.000000 36.000000 C.2 1 VAL 0.000000
291 C 8.000000 36.000000 0.000000 C.2 1 VAL 0.000000
292 C 8.000000 36.000000 4.000000 C.2 1 VAL 0.000000
293 C 8.000000 36.000000 8.000000 C.2 1 VAL 0.000000
294 C 8.000000 36.000000 12.000000 C.2 1 VAL 0.000000
295 C 8.000000 36.000000 16.000000 C.2 1 VAL 0.000000
296 C 8.000000 36.000000 20.000000 C.2 1 VAL 0.000000
297 C 8.000000 36.000000 24.000000 C.2 1 VAL 0.000000
298 C 8.000000 36.000000 28.000000 C.2 1 VAL 0.000000
299 C 8.000000 36.000000 32.000000 C.2 1 VAL 0.000000
300 C 8.000000 36.000000 36.000000 C.2 1 VAL 0.000000
301 C 12.000000 0.000000 0.000000 C.2 1 VAL 0.000000
302 C 12.000000 0.000000 4.000000 C.2 1 VAL 0.000000
303 C 12.000000 0.000000 8.000000 C.2 1 VAL 0.000000
304 C 12.000000 0.000000 12.000000 C.2 1 VAL 0.000000
305 C 12.000000 0.000000 16.000000 C.2 1 VAL 0.000000
306 C 12.000000 0.000000 20.000000 C.2 1 VAL 0.000000
307 C 12.000000 0.000000 24.000000 C.2 1 VAL 0.000000
308 C 12.000000 0.000000 28.000000 C.2 1 VAL 0.000000
309 C 12.000000 0.000000 32.000000 C.2 1 VAL 0.000000
310 C 12.000000 0.000000 36.000000 C.2 1 VAL 0.000000
311 C 12.000000 4.000000 0.000000 C.2 1 VAL 0.000000
312 C 12.000000 4.000000 4.000000 C.2 1 VAL 0.000000
313 C 12.000000 4.000000 8.000000 C.2 1 VAL 0.000000
314 C 12.000000 4.000000 12.000000 C.2 1 VAL 0.000000
315 C 12.000000 4.000000 16.000000 C.2 1 VAL 0.000000
316 C 12.000000 4.000000 20.000000 C.2 1 VAL 0.000000
317 C 12.000000 4.000000 24.000000 C.2 1 VAL 0.000000
318 C 12.000000 4.000000 28.000000 C.2 1 VAL 0.000000
319 C 12.000000 4.000000 32.000000 C.2 1 VAL 0.000000
320 C 12.000000 4.000000 36.000000 C.2 1 VAL 0.000000
321 C 12.000000 8.000000 0.000000 C.2 1 VAL 0.000000
322 C 12.000000 8.000000 4.000000 C.2 1 VAL 0.000000
323 C 12.000000 8.000000 8.000000 C.2 1 VAL 0.000000
324 C 12.000000 8.000000 12.000000 C.2 1 VAL 0.000000
325 C 12.000000 8.000000 16.000000 C.2 1 VAL 0.000000
326 C 12.000000 8.000000 20.000000 C.2 1 VAL 0.000000
327 C 12.000000 8.000000 24.000000 C.2 1 VAL 0.000000
328 C 12.000000 8.000000 28.000000 C.2 1 VAL 0.000000
329 C 12.000000 8.000000 32.000000 C.2 1 VAL 0.000000
330 C 12.000000 8.000000 36.000000 C.2 1 VAL 0.000000
331 C 12.000000 12.000000 0.000000 C.2 1 VAL 0.000000
332 C 12.000000 12.000000 4.000000 C.2 1 VAL 0.000000
333 C 12.000000 12.000000 8.000000 C.2 1 VAL 0.000000
334 C 12.000000 12.000000 12.000000 C.2 1 VAL 0.000000
335 C 12.000000 12.000000 16.000000 C.2 1 VAL 0.000000
336 C 12.000000 12.000000 20.000000 C.2 1 VAL 0.000000
337 C 12.000000 12.000000 24.000000 C.2 1 VAL 0.000000
338 C 12.000000 12.000000 28.000000 C.2 1 VAL 0.000000
339 C 12.000000 12.000000 32.000000 C.2 1 VAL 0.000000
340 C 12.000000 12.000000 36.000000 C.2 1 VAL 0.000000
341 C 12.000000 16.000000 0.000000 C.2 1 VAL 0.000000
342 C 12.000000 16.000000 4.000000 C.2 1 VAL 0.000000
343 C 12.000000 16.000000 8.000000 C.2 1 VAL 0.000000
344 C 12.000000 16.000000 12.000000 C.2 1 VAL 0.000000
345 C 12.000000 16.000000 16.000000 C.2 1 VAL 0.000000
346 C 12.000000 16.000000 20.000000 C.2 1 VAL 0.000000
347 C 12.000000 16.000000 24.000000 C.2 1 VAL 0.000000
348 C 12.000000 16.000000 28.000000 C.2 1 VAL 0.000000
349 C 12.000000 16.000000 32.000000 C.2 1 VAL 0.000000
350 C 12.000000 16.000000 36.000000 C.2 1 VAL 0.000000
351 C 12.000000 20.000000 0.000000 C.2 1 VAL 0.000000
352 C 12.000000 20.000000 4.000000 C.2 1 VAL 0.000000
353 C 12.000000 20.000000 8.000000 C.2 1 VAL 0.000000
354 C 12.000000 20.000000 12.000000 C.2 1 VAL 0.000000
355 C 12.000000 20.000000 16.000000 C.2 1 VAL 0.000000
356 C 12.000000 20.000000 20.000000 C.2 1 VAL 0.000000
357 C 12.000000 20.000000 24.000000 C.2 1 VAL 0.000000
358 C 12.000000 20.000000 28.000000 C.2 1 VAL 0.000000
359 C 12.000000 20.000000 32.000000 C.2 1 VAL 0.000000
360 C 12.000000 20.000000 36.000000 C.2 1 VAL 0.000000
361 C 12.000000 24.000000 0.000000 C.2 1 VAL 0.000000
362 C 12.000000 24.000000 4.000000 C.2 1 VAL 0.000000
363 C 12.000000 24.000000 8.000000 C.2 1 VAL 0.000000
364 C 12.000000 24.000000 12.000000 C.2 1 VAL 0.000000
365 C 12.000000 24.000000 16.000000 C.2 1 VAL 0.000000
366 C 12.000000 24.000000 20.000000 C.2 1 VAL 0.000000
367 C 12.000000 24.000000 24.000000 C.2 1 VAL 0.000000
368 C 12.000000 24.000000 28.000000 C.2 1 VAL 0.000000
369 C 12.000000 24.000000 32.000000 C.2 1 VAL 0.000000
370 C 12.000000 24.000000 36.000000 C.2 1 VAL 0.000000
371 C 12.000000 28.000000 0.000000 C.2 1 VAL 0.000000
372 C 12.000000 28.000000 4.000000 C.2 1 VAL 0.000000
373 C 12.000000 28.000000 8.000000 C.2 1 VAL 0.000000
374 C 12.000000 28.000000 12.000000 C.2 1 VAL 0.000000
375 C 12.000000 28.000000 16.000000 C.2 1 VAL 0.000000
376 C 12.000000 28.000000 20.000000 C.2 1 VAL 0.000000
377 C 12.000000 28.000000 24.000000 C.2 1 VAL 0.000000
378 C 12.000000 28.000000 28.000000 C.2 1 VAL 0.000000
379 C 12.000000 28.000000 32.000000 C.2 1 VAL 0.000000
380 C 12.000000 28.000000 36.000000 C.2 1 VAL 0.000000
381 C 12.000000 32.000000 0.000000 C.2 1 VAL 0.000000
382 C 12.000000 32.000000 4.000000 C.2 1 VAL 0.000000
383 C 12.000000 32.000000 8.000000 C.2 1 VAL 0.000000
384 C 12.000000 32.000000 12.000000 C.2 1 VAL 0.000000
385 C 12.000000 32.000000 16.000000 C.2 1 VAL 0.000000
386 C 12.000000 32.000000 20.000000 C.2 1 VAL 0.000000
387 C 12.000000 32.000000 24.000000 C.2 1 VAL 0.000000
388 C 12.000000 32.000000 28.000000 C.2 1 VAL 0.000000
389 C 12.000000 32.000000 32.000000 C.2 1 VAL 0.000000
390 C 12.000000 32.000000 36.000000 C.2 1 VAL 0.000000
391 C 12.000000 36.000000 0.000000 C.2 1 VAL 0.000000
392 C 12.000000 36.000000 4.000000 C.2 1 VAL 0.000000
393 C 12.000000 36.000000 8.000000 C.2 1 VAL 0.000000
394 C 12.000000 36.000000 12.000000 C.2 1 VAL 0.000000
395 C 12.000000 36.000000 16.000000 C.2 1 VAL 0.000000
396 C 12.000000 36.000000 20.000000 C.2 1 VAL 0.000000
397 C 12.000000 36.000000 24.000000 C.2 1 VAL 0.000000
398 C 12.000000 36.000000 28.000000 C.2 1 VAL 0.000000
399 C 12.000000 36.000000 32.000000 C.2 1 VAL 0.000000
400 C 12.000000 36.000000 36.000000 C.2 1 VAL 0.000000
401 C 16.000000 0.000000 0.000000 C.2 1 VAL 0.000000
402 C 16.000000 0.000000 4.000000 C.2 1 VAL 0.000000
403 C 16.000000 0.000000 8.000000 C.2 1 VAL 0.000000
404 C 16.000000 0.000000 12.000000 C.2 1 VAL 0.000000
405 C 16.000000 0.000000 16.000000 C.2 1 VAL 0.000000
406 C 16.000000 0.000000 20.000000 C.2 1 VAL 0.000000
407 C 16.000000 0.000000 24.000000 C.2 1 VAL 0.000000
408 C 16.000000 0.000000 28.000000 C.2 1 VAL 0.000000
409 C 16.000000 0.000000 32.000000 C.2 1 VAL 0.000000
410 C 16.000000 0.000000 36.000000 C.2 1 VAL 0.000000
411 C 16.000000 4.000000 0.000000 C.2 1 VAL 0.000000
412 C 16.000000 4.000000 4.000000 C.2 1 VAL 0.000000
413 C 16.000000 4.000000 8.000000 C.2 1 VAL 0.000000
414 C 16.000000 4.000000 12.000000 C.2 1 VAL 0.000000
415 C 16.000000 4.000000 16.000000 C.2 1 VAL 0.000000
416 C 16.000000 4.000000 20.000000 C.2 1 VAL 0.000000
417 C 16.000000 4.000000 24.000000 C.2 1 VAL 0.000000
418 C 16.000000 4.000000 28.000000 C.2 1 VAL 0.000000
419 C 16.000000 4.000000 32.000000 C.2 1 VAL 0.000000
420 C 16.000000 4.000000 36.000000 C.2 1 VAL 0.000000
421 C 16.000000 8.000000 0.000000 C.2 1 VAL 0.000000
422 C 16.000000 8.000000 4.000000 C.2 1 VAL 0.000000
423 C 16.000000 8.000000 8.000000 C.2 1 VAL 0.000000
424 C 16.000000 8.000000 12.000000 C.2 1 VAL 0.000000
425 C 16.000000 8.000000 16.000000 C.2 1 VAL 0.000000
426 C 16.000000 8.000000 20.000000 C.2 1 VAL 0.000000
427 C 16.000000 8.000000 24.000000 C.2 1 VAL 0.000000
428 C 16.000000 8.000000 28.000000 C.2 1 VAL 0.000000
429 C 16.000000 8.000000 32.000000 C.2 1 VAL 0.000000
430 C 16.000000 8.000000 36.000000 C.2 1 VAL 0.000000
431 C 16.000000 12.000000 0.000000 C.2 1 VAL 0.000000
432 C 16.000000 12.000000 4.000000 C.2 1 VAL 0.000000
433 C 16.000000 12.000000 8.000000 C.2 1 VAL 0.000000
434 C 16.000000 12.000000 12.000000 C.2 1 VAL 0.000000
435 C 16.000000 12.000000 16.000000 C.2 1 VAL 0.000000
436 C 16.000000 12.000000 20.000000 C.2 1 VAL 0.000000
437 C 16.000000 12.000000 24.000000 C.2 1 VAL 0.000000
438 C 16.000000 12.000000 28.000000 C.2 1 VAL 0.000000
439 C 16.000000 12.000000 32.000000 C.2 1 VAL 0.000000
440 C 16.000000 12.000000 36.000000 C.2 1 VAL 0.000000
441 C 16.000000 16.000000 0.000000 C.2 1 VAL 0.000000
442 C 16.000000 16.000000 4.000000 C.2 1 VAL 0.000000
443 C 16.000000 16.000000 8.000000 C.2 1 VAL 0.000000
444 C 16.000000 16.000000 12.000000 C.2 1 VAL 0.000000
445 C 16.000000 16.000000 16.000000 C.2 1 VAL 0.000000
446 C 16.000000 16.000000 20.000000 C.2 1 VAL 0.000000
447 C 16.000000 16.000000 24.000000 C.2 1 VAL 0.000000
448 C 16.000000 16.000000 28.000000 C.2 1 VAL 0.000000
449 C 16.000000 16.000000 32.000000 C.2 1 VAL 0.000000
450 C 16.000000 16.000000 36.000000 C.2 1 VAL 0.000000
451 C 16.000000 20.000000 0.000000 C.2 1 VAL 0.000000
452 C 16.000000 20.000000 4.000000 C.2 1 VAL 0.000000
453 C 16.000000 20.000000 8.000000 C.2 1 VAL 0.000000
454 C 16.000000 20.000000 12.000000 C.2 1 VAL 0.000000
455 C 16.000000 20.000000 16.000000 C.2 1 VAL 0.000000
456 C 16.000000 20.000000 20.000000 C.2 1 VAL 0.000000
457 C 16.000000 20.000000 24.000000 C.2 1 VAL 0.000000
458 C 16.000000 20.000000 28.000000 C.2 1 VAL 0.000000
459 C 16.000000 20.000000 32.000000 C.2 1 VAL 0.000000
460 C 16.000000 20.000000 36.000000 C.2 1 VAL 0.000000
461 C 16.000000 24.000000 0.000000 C.2 1 VAL 0.000000
462 C 16.000000 24.000000 4.000000 C.2 1 VAL 0.000000
463 C 16.000000 24.000000 8.000000 C.2 1 VAL 0.000000
464 C 16.000000 24.000000 12.000000 C.2 1 VAL 0.000000
465 C 16.000000 24.000000 16.000000 C.2 1 VAL 0.000000
466 C 16.000000 24.000000 20.000000 C.2 1 VAL 0.000000
467 C 16.000000 24.000000 24.000000 C.2 1 VAL 0.000000
468 C 16.000000 24.000000 28.000000 C.2 1 VAL 0.000000
469 C 16.000000 24.000000 32.000000 C.2 1 VAL 0.000000
470 C 16.000000 24.000000 36.000000 C.2 1 VAL 0.000000
471 C 16.000000 28.000000 0.000000 C.2 1 VAL 0.000000
472 C 16.000000 28.000000 4.000000 C.2 1 VAL 0.000000
473 C 16.000000 28.000000 8.000000 C.2 1 VAL 0.000000
474 C 16.000000 28.000000 12.000000 C.2 1 VAL 0.000000
475 C 16.000000 28.000000 16.000000 C.2 1 VAL 0.000000
476 C 16.000000 28.000000 20.000000 C.2 1 VAL 0.000000
477 C 16.000000 28.000000 24.000000 C.2 1 VAL 0.000000
478 C 16.000000 28.000000 28.000000 C.2 1 VAL 0.000000
479 C 16.000000 28.000000 32.000000 C.2 1 VAL 0.000000
480 C 16.000000 28.000000 36.000000 C.2 1 VAL 0.000000
481 C 16.000000 32.000000 0.000000 C.2 1 VAL 0.000000
482 C 16.000000 32.000000 4.000000 C.2 1 VAL 0.000000
483 C 16.000000 32.000000 8.000000 C.2 1 VAL 0.000000
484 C 16.000000 32.000000 12.000000 C.2 1 VAL 0.000000
485 C 16.000000 32.000000 16.000000 C.2 1 VAL 0.000000
486 C 16.000000 32.000000 20.000000 C.2 1 VAL 0.000000
487 C 16.000000 32.000000 24.000000 C.2 1 VAL 0.000000
488 C 16.000000 32.000000 28.000000 C.2 1 VAL 0.000000
489 C 16.000000 32.000000 32.000000 C.2 1 VAL 0.000000
490 C 16.000000 32.000000 36.000000 C.2 1 VAL 0.000000
491 C 16.000000 36.000000 0.000000 C.2 1 VAL 0.000000
492 C 16.000000 36.000000 4.000000 C.2 1 VAL 0.000000
493 C 16.000000 36.000000 8.000000 C.2 1 VAL 0.000000
494 C 16.000000 36.000000 12.000000 C.2 1 VAL 0.000000
495 C 16.000000 36.000000 16.000000 C.2 1 VAL 0.000000
496 C 16.000000 36.000000 20.000000 C.2 1 VAL 0.000000
497 C 16.000000 36.000000 24.000000 C.2 1 VAL 0.000000
498 C 16.000000 36.000000 28.000000 C.2 1 VAL 0.000000
499 C 16.000000 36.000000 32.000000 C.2 1 VAL 0.000000
500 C 16.000000 36.000000 36.000000 C.2 1 VAL 0.000000
501 C 20.000000 12.000000 12.000000 C.2 1 VAL 0.000000
502 C 20.000000 12.000000 16.000000 C.2 1 VAL 0.000000
503 C 20.000000 12.000000 20.000000 C.2 1 VAL 0.000000
504 C 20.000000 12.000000 24.000000 C.2 1 VAL 0.000000
505 C 20.000000 16.000000 12.000000 C.2 1 VAL 0.000000
506 C 20.000000 16.000000 16.000000 C.2 1 VAL 0.000000
507 C 20.000000 16.000000 20.000000 C.2 1 VAL 0.000000
508 C 20.000000 16.000000 24.000000 C.2 1 VAL 0.000000
509 C 20.000000 20.000000 12.000000 C.2 1 VAL 0.000000
510 C 20.000000 20.000000 16.000000 C.2 1 VAL 0.000000
511 C 20.000000 20.000000 20.000000 C.2 1 VAL 0.000000
512 C 20.000000 20.000000 24.000000 C.2 1 VAL 0.000000
513 C 20.000000 24.000000 12.000000 C.2 1 VAL 0.000000
514 C 20.000000 24.000000 16.000000 C.2 1 VAL 0.000000
515 C 20.000000 24.000000 20.000000 C.2 1 VAL 0.000000
516 C 20.000000 24.000000 24.000000 C.2 1 VAL 0.000000
517 C 24.000000 12.000000 12.000000 C.2 1 VAL 0.000000
518 C 24.000000 12.000000 16.000000 C.2 1 VAL 0.000000
519 C 24.000000 12.000000 20.000000 C.2 1 VAL 0.000000
520 C 24.000000 12.000000 24.000000 C.2 1 VAL 0.000000
521 C 24.000000 16.000000 12.000000 C.2 1 VAL 0.000000
522 C 24.000000 16.000000 16.000000 C.2 1 VAL 0.000000
523 C 24.000000 16.000000 20.000000 C.2 1 VAL 0.000000
524 C 24.000000 16.000000 24.000000 C.2 1 VAL 0.000000
525 C 24.000000 20.000000 12.000000 C.2 1 VAL 0.000000
526 C 24.000000 20.000000 16.000000 C.2 1 VAL 0.000000
527 C 24.000000 20.000000 20.000000 C.2 1 VAL 0.000000
528 C 24.000000 20.000000 24.000000 C.2 1 VAL 0.000000
529 C 24.000000 24.000000 12.000000 C.2 1 VAL 0.000000
530 C 24.000000 24.000000 16.000000 C.2 1 VAL 0.000000
531 C 24.000000 24.000000 20.000000 C.2 1 VAL 0.000000
532 C 24.000000 24.000000 24.000000 C.2 1 VAL 0.000000
533 C 28.000000 12.000000 12.000000 C.2 1 VAL 0.000000
534 C 28.000000 12.000000 16.000000 C.2 1 VAL 0.000000
535 C 28.000000 12.000000 20.000000 C.2 1 VAL 0.000000
536 C 28.000000 12.000000 24.000000 C.2 1 VAL 0.000000
537 C 28.000000 16.000000 12.000000 C.2 1 VAL 0.000000
538 C 28.000000 16.000000 16.000000 C.2 1 VAL 0.000000
539 C 28.000000 16.000000 20.000000 C.2 1 VAL 0.000000
540 C 28.000000 16.000000 24.000000 C.2 1 VAL 0.000000
541 C 28.000000 20.000000 12.000000 C.2 1 VAL 0.000000
542 C 28.000000 20.000000 16.000000 C.2 1 VAL 0.000000
543 C 28.000000 20.000000 20.000000 C.2 1 VAL 0.000000
544 C 28.000000 20.000000 24.000000 C.2 1 VAL 0.000000
545 C 28.000000 24.000000 12.000000 C.2 1 VAL 0.000000
546 C 28.000000 24.000000 16.000000 C.2 1 VAL 0.000000
547 C 28.000000 24.000000 20.000000 C.2 1 VAL 0.000000
548 C 28.000000 24.000000 24.000000 C.2 1 VAL 0.000000
549 C 32.000000 12.000000 12.000000 C.2 1 VAL 0.000000
550 C 32.000000 12.000000 16.000000 C.2 1 VAL 0.000000
551 C 32.000000 12.000000 20.000000 C.2 1 VAL 0.000000
552 C 32.000000 12.000000 24.000000 C.2 1 VAL 0.000000
553 C 32.000000 16.000000 12.000000 C.2 1 VAL 0.000000
554 C 32.000000 16.000000 16.000000 C.2 1 VAL 0.000000
555 C 32.000000 16.000000 20.000000 C.2 1 VAL 0.000000
556 C 32.000000 16.000000 24.000000 C.2 1 VAL 0.000000
557 C 32.000000 20.000000 12.000000 C.2 1 VAL 0.000000
558 C 32.000000 20.000000 16.000000 C.2 1 VAL 0.000000
559 C 32.000000 20.000000 20.000000 C.2 1 VAL 0.000000
560 C 32.000000 20.000000 24.000000 C.2 1 VAL 0.000000
561 C 32.000000 24.000000 12.000000 C.2 1 VAL 0.000000
562 C 32.000000 24.000000 16.000000 C.2 1 VAL 0.000000
563 C 32.000000 24.000000 20.000000 C.2 1 VAL 0.000000
564 C 32.000000 24.000000 24.000000 C.2 1 VAL 0.000000
565 C 36.000000 12.000000 12.000000 C.2 1 VAL 0.000000
566 C 36.000000 12.000000 16.000000 C.2 1 VAL 0.000000
567 C 36.000000 12.000000 20.000000 C.2 1 VAL 0.000000
568 C 36.000000 12.000000 24.000000 C.2 1 VAL 0.000000
569 C 36.000000 16.000000 12.000000 C.2 1 VAL 0.000000
570 C 36.000000 16.000000 16.000000 C.2 1 VAL 0.000000
571 C 36.000000 16.000000 20.000000 C.2 1 VAL 0.000000
572 C 36.000000 16.000000 24.000000 C.2 1 VAL 0.000000
573 C 36.000000 20.000000 12.000000 C.2 1 VAL 0.000000
574 C 36.000000 20.000000 16.000000 C.2 1 VAL 0.000000
575 C 36.000000 20.000000 20.000000 C.2 1 VAL 0.000000
576 C 36.000000 20.000000 24.000000 C.2 1 VAL 0.000000
577 C 36.000000 24.000000 12.000000 C.2 1 VAL 0.000000
578 C 36.000000 24.000000 16.000000 C.2 1 VAL 0.000000
579 C 36.000000 24.000000 20.000000 C.2 1 VAL 0.000000
580 C 36.000000 24.000000 24.000000 C.2 1 VAL 0.000000
