@<TRIPOS>MOLECULE
Custom
580 0
Custom
CustomCharges

@<TRIPOS>ATOM
1 C 0.000000 0.000000 0.000000 C.2 1 VAL 0.050000
2 C 0.000000 0.000000 4.000000 C.2 1 VAL 0.050000
3 C 0.000000 0.000000 8.000000 C.2 1 VAL 0.050000
4 C 0.000000 0.000000 12.000000 C.2 1 VAL 0.050000
5 C 0.000000 0.000000 16.000000 C.2 1 VAL 0.050000
6 C 0.000000 0.000000 20.000000 C.2 1 VAL 0.050000
7 C 0.000000 0.000000 24.000000 C.2 1 VAL 0.050000
8 C 0.000000 0.000000 28.000000 C.2 1 VAL 0.050000
9 C 0.000000 0.000000 32.000000 C.2 1 VAL 0.050000
10 C 0.000000 0.000000 36.000000 C.2 1 VAL 0.050000
11 C 0.000000 4.000000 0.000000 C.2 1 VAL 0.050000
12 C 0.000000 4.000000 4.000000 C.2 1 VAL 0.050000
13 C 0.000000 4.000000 8.000000 C.2 1 VAL 0.050000
14 C 0.000000 4.000000 12.000000 C.2 1 VAL 0.050000
15 C 0.000000 4.000000 16.000000 C.2 1 VAL 0.050000
16 C 0.000000 4.000000 20.000000 C.2 1 VAL 0.050000
17 C 0.000000 4.000000 24.000000 C.2 1 VAL 0.050000
18 C 0.000000 4.000000 28.000000 C.2 1 VAL 0.050000
19 C 0.000000 4.000000 32.000000 C.2 1 VAL 0.050000
20 C 0.000000 4.000000 36.000000 C.2 1 VAL 0.050000
21 C 0.000000 8.000000 0.000000 C.2 1 VAL 0.050000
22 C 0.000000 8.000000 4.000000 C.2 1 VAL 0.050000
23 C 0.000000 8.000000 8.000000 C.2 1 VAL 0.050000
24 C 0.000000 8.000000 12.000000 C.2 1 VAL 0.050000
25 C 0.000000 8.000000 16.000000 C.2 1 VAL 0.050000
26 C 0.000000 8.000000 20.000000 C.2 1 VAL 0.050000
27 C 0.000000 8.000000 24.000000 C.2 1 VAL 0.050000
28 C 0.000000 8.000000 28.000000 C.2 1 VAL 0.050000
29 C 0.000000 8.000000 32.000000 C.2 1 VAL 0.050000
30 C 0.000000 8.000000 36.000000 C.2 1 VAL 0.050000
31 C 0.000000 12.000000 0.000000 C.2 1 VAL 0.050000
32 C 0.000000 12.000000 4.000000 C.2 1 VAL 0.050000
33 C 0.000000 12.000000 8.000000 C.2 1 VAL 0.050000
34 C 0.000000 12.000000 12.000000 C.2 1 VAL 0.050000
35 C 0.000000 12.000000 16.000000 C.2 1 VAL 0.050000
36 C 0.000000 12.000000 20.000000 C.2 1 VAL 0.050000
37 C 0.000000 12.000000 24.000000 C.2 1 VAL 0.050000
38 C 0.000000 12.000000 28.000000 C.2 1 VAL 0.050000
39 C 0.000000 12.000000 32.000000 C.2 1 VAL 0.050000
40 C 0.000000 12.000000 36.000000 C.2 1 VAL 0.050000
41 C 0.000000 16.000000 0.000000 C.2 1 VAL 0.050000
42 C 0.000000 16.000000 4.000000 C.2 1 VAL 0.050000
43 C 0.000000 16.000000 8.000000 C.2 1 VAL 0.050000
44 C 0.000000 16.000000 12.000000 C.2 1 VAL 0.050000
45 C 0.000000 16.000000 16.000000 C.2 1 VAL 0.050000
46 C 0.000000 16.000000 20.000000 C.2 1 VAL 0.050000
47 C 0.000000 16.000000 24.000000 C.2 1 VAL 0.050000
48 C 0.000000 16.000000 28.000000 C.2 1 VAL 0.050000
49 C 0.000000 16.000000 32.000000 C.2 1 VAL 0.050000
50 C 0.000000 16.000000 36.000000 C.2 1 VAL 0.050000
51 C 0.000000 20.000000 0.000000 C.2 1 VAL 0.050000
52 C 0.000000 20.000000 4.000000 C.2 1 VAL 0.050000
53 C 0.000000 20.000000 8.000000 C.2 1 VAL 0.050000
54 C 0.000000 20.000000 12.000000 C.2 1 VAL 0.050000
55 C 0.000000 20.000000 16.000000 C.2 1 VAL 0.050000
56 C 0.000000 20.000000 20.000000 C.2 1 VAL 0.050000
57 C 0.000000 20.000000 24.000000 C.2 1 VAL 0.050000
58 C 0.000000 20.000000 28.000000 C.2 1 VAL 0.050000
59 C 0.000000 20.000000 32.000000 C.2 1 VAL 0.050000
60 C 0.000000 20.000000 36.000000 C.2 1 VAL 0.050000
61 C 0.000000 24.000000 0.000000 C.2 1 VAL 0.050000
62 C 0.000000 24.000000 4.000000 C.2 1 VAL 0.050000
63 C 0.000000 24.000000 8.000000 C.2 1 VAL 0.050000
64 C 0.000000 24.000000 12.000000 C.2 1 VAL 0.050000
65 C 0.000000 24.000000 16.000000 C.2 1 VAL 0.050000
66 C 0.000000 24.000000 20.000000 C.2 1 VAL 0.050000
67 C 0.000000 24.000000 24.000000 C.2 1 VAL 0.050000
68 C 0.000000 24.000000 28.000000 C.2 1 VAL 0.050000
69 C 0.000000 24.000000 32.000000 C.2 1 VAL 0.050000
70 C 0.000000 24.000000 36.000000 C.2 1 VAL 0.050000
71 C 0.000000 28.000000 0.000000 C.2 1 VAL 0.050000
72 C 0.000000 28.000000 4.000000 C.2 1 VAL 0.050000
73 C 0.000000 28.000000 8.000000 C.2 1 VAL 0.050000
74 C 0.000000 28.000000 12.000000 C.2 1 VAL 0.050000
75 C 0.000000 28.000000 16.000000 C.2 1 VAL 0.050000
76 C 0.000000 28.000000 20.000000 C.2 1 VAL 0.050000
77 C 0.000000 28.000000 24.000000 C.2 1 VAL 0.050000
78 C 0.000000 28.000000 28.000000 C.2 1 VAL 0.050000
79 C 0.000000 28.000000 32.000000 C.2 1 VAL 0.050000
80 C 0.000000 28.000000 36.000000 C.2 1 VAL 0.050000
81 C 0.000000 32.000000 0.000000 C.2 1 VAL 0.050000
82 C 0.000000 32.000000 4.000000 C.2 1 VAL 0.050000
83 C 0.000000 32.000000 8.000000 C.2 1 VAL 0.050000
84 C 0.000000 32.000000 12.000000 C.2 1 VAL 0.050000
85 C 0.000000 32.000000 16.000000 C.2 1 VAL 0.050000
86 C 0.000000 32.000000 20.000000 C.2 1 VAL 0.050000
87 C 0.000000 32.000000 24.000000 C.2 1 VAL 0.050000
88 C 0.000000 32.000000 28.000000 C.2 1 VAL 0.050000
89 C 0.000000 32.000000 32.000000 C.2 1 VAL 0.050000
90 C 0.000000 32.000000 36.000000 C.2 1 VAL 0.050000
91 C 0.000000 36.000000 0.000000 C.2 1 VAL 0.050000
92 C 0.000000 36.000000 4.000000 C.2 1 VAL 0.050000
93 C 0.000000 36.000000 8.000000 C.2 1 VAL 0.050000
94 C 0.000000 36.000000 12.000000 C.2 1 VAL 0.050000
95 C 0.000000 36.000000 16.000000 C.2 1 VAL 0.050000
96 C 0.000000 36.000000 20.000000 C.2 1 VAL 0.050000
97 C 0.000000 36.000000 24.000000 C.2 1 VAL 0.050000
98 C 0.000000 36.000000 28.000000 C.2 1 VAL 0.050000
99 C 0.000000 36.000000 32.000000 C.2 1 VAL 0.050000
100 C 0.000000 36.000000 36.000000 C.2 1 VAL 0.050000
101 C 4.000000 0.000000 0.000000 C.2 1 VAL 0.050000
102 C 4.000000 0.000000 4.000000 C.2 1 VAL 0.050000
103 C 4.000000 0.000000 8.000000 C.2 1 VAL 0.050000
104 C 4.000000 0.000000 12.000000 C.2 1 VAL 0.050000
105 C 4.000000 0.000000 16.000000 C.2 1 VAL 0.050000
106 C 4.000000 0.000000 20.000000 C.2 1 VAL 0.050000
107 C 4.000000 0.000000 24.000000 C.2 1 VAL 0.050000
108 C 4.000000 0.000000 28.000000 C.2 1 VAL 0.050000
109 C 4.000000 0.000000 32.000000 C.2 1 VAL 0.050000
110 C 4.000000 0.000000 36.000000 C.2 1 VAL 0.050000
111 C 4.000000 4.000000 0.000000 C.2 1 VAL 0.050000
112 C 4.000000 4.000000 4.000000 C.2 1 VAL 0.050000
113 C 4.000000 4.000000 8.000000 C.2 1 VAL 0.050000
114 C 4.000000 4.000000 12.000000 C.2 1 VAL 0.050000
115 C 4.000000 4.000000 16.000000 C.2 1 VAL 0.050000
116 C 4.000000 4.000000 20.000000 C.2 1 VAL 0.050000
117 C 4.000000 4.000000 24.000000 C.2 1 VAL 0.050000
118 C 4.000000 4.000000 28.000000 C.2 1 VAL 0.050000
119 C 4.000000 4.000000 32.000000 C.2 1 VAL 0.050000
120 C 4.000000 4.000000 36.000000 C.2 1 VAL 0.050000
121 C 4.000000 8.000000 0.000000 C.2 1 VAL 0.050000
122 C 4.000000 8.000000 4.000000 C.2 1 VAL 0.050000
123 C 4.000000 8.000000 8.000000 C.2 1 VAL 0.050000
124 C 4.000000 8.000000 12.000000 C.2 1 VAL 0.050000
125 C 4.000000 8.000000 16.000000 C.2 1 VAL 0.050000
126 C 4.000000 8.000000 20.000000 C.2 1 VAL 0.050000
127 C 4.000000 8.000000 24.000000 C.2 1 VAL 0.050000
128 C 4.000000 8.000000 28.000000 C.2 1 VAL 0.050000
129 C 4.000000 8.000000 32.000000 C.2 1 VAL 0.050000
130 C 4.000000 8.000000 36.000000 C.2 1 VAL 0.050000
131 C 4.000000 12.000000 0.000000 C.2 1 VAL 0.050000
132 C 4.000000 12.000000 4.000000 C.2 1 VAL 0.050000
133 C 4.000000 12.000000 8.000000 C.2 1 VAL 0.050000
134 C 4.000000 12.000000 12.000000 C.2 1 VAL 0.050000
135 C 4.000000 12.000000 16.000000 C.2 1 VAL 0.050000
136 C 4.000000 12.000000 20.000000 C.2 1 VAL 0.050000
137 C 4.000000 12.000000 24.000000 C.2 1 VAL 0.050000
138 C 4.000000 12.000000 28.000000 C.2 1 VAL 0.050000
139 C 4.000000 12.000000 32.000000 C.2 1 VAL 0.050000
140 C 4.000000 12.000000 36.000000 C.2 1 VAL 0.050000
141 C 4.000000 16.000000 0.000000 C.2 1 VAL 0.050000
142 C 4.000000 16.000000 4.000000 C.2 1 VAL 0.050000
143 C 4.000000 16.000000 8.000000 C.2 1 VAL 0.050000
144 C 4.000000 16.000000 12.000000 C.2 1 VAL 0.050000
145 C 4.000000 16.000000 16.000000 C.2 1 VAL 0.050000
146 C 4.000000 16.000000 20.000000 C.2 1 VAL 0.050000
147 C 4.000000 16.000000 24.000000 C.2 1 VAL 0.050000
148 C 4.000000 16.000000 28.000000 C.2 1 VAL 0.050000
149 C 4.000000 16.000000 32.000000 C.2 1 VAL 0.050000
150 C 4.000000 16.000000 36.000000 C.2 1 VAL 0.050000
151 C 4.000000 20.000000 0.000000 C.2 1 VAL 0.050000
152 C 4.000000 20.000000 4.000000 C.2 1 VAL 0.050000
153 C 4.000000 20.000000 8.000000 C.2 1 VAL 0.050000
154 C 4.000000 20.000000 12.000000 C.2 1 VAL 0.050000
155 C 4.000000 20.000000 16.000000 C.2 1 VAL 0.050000
156 C 4.000000 20.000000 20.000000 C.2 1 VAL 0.050000
157 C 4.000000 20.000000 24.000000 C.2 1 VAL 0.050000
158 C 4.000000 20.000000 28.000000 C.2 1 VAL 0.050000
159 C 4.000000 20.000000 32.000000 C.2 1 VAL 0.050000
160 C 4.000000 20.000000 36.000000 C.2 1 VAL 0.050000
161 C 4.000000 24.000000 0.000000 C.2 1 VAL 0.050000
162 C 4.000000 24.000000 4.000000 C.2 1 VAL 0.050000
163 C 4.000000 24.000000 8.000000 C.2 1 VAL 0.050000
164 C 4.000000 24.000000 12.000000 C.2 1 VAL 0.050000
165 C 4.000000 24.000000 16.000000 C.2 1 VAL 0.050000
166 C 4.000000 24.000000 20.000000 C.2 1 VAL 0.050000
167 C 4.000000 24.000000 24.000000 C.2 1 VAL 0.050000
168 C 4.000000 24.000000 28.000000 C.2 1 VAL 0.050000
169 C 4.000000 24.000000 32.000000 C.2 1 VAL 0.050000
170 C 4.000000 24.000000 36.000000 C.2 1 VAL 0.050000
171 C 4.000000 28.000000 0.000000 C.2 1 VAL 0.050000
172 C 4.000000 28.000000 4.000000 C.2 1 VAL 0.050000
173 C 4.000000 28.000000 8.000000 C.2 1 VAL 0.050000
174 C 4.000000 28.000000 12.000000 C.2 1 VAL 0.050000
175 C 4.000000 28.000000 16.000000 C.2 1 VAL 0.050000
176 C 4.000000 28.000000 20.000000 C.2 1 VAL 0.050000
177 C 4.000000 28.000000 24.000000 C.2 1 VAL 0.050000
178 C 4.000000 28.000000 28.000000 C.2 1 VAL 0.050000
179 C 4.000000 28.000000 32.000000 C.2 1 VAL 0.050000
180 C 4.000000 28.000000 36.000000 C.2 1 VAL 0.050000
181 C 4.000000 32.000000 0.000000 C.2 1 VAL 0.050000
182 C 4.000000 32.000000 4.000000 C.2 1 VAL 0.050000
183 C 4.000000 32.000000 8.000000 C.2 1 VAL 0.050000
184 C 4.000000 32.000000 12.000000 C.2 1 VAL 0.050000
185 C 4.000000 32.000000 16.000000 C.2 1 VAL 0.050000
186 C 4.000000 32.000000 20.000000 C.2 1 VAL 0.050000
187 C 4.000000 32.000000 24.000000 C.2 1 VAL 0.050000
188 C 4.000000 32.000000 28.000000 C.2 1 VAL 0.050000
189 C 4.000000 32.000000 32.000000 C.2 1 VAL 0.050000
190 C 4.000000 32.000000 36.000000 C.2 1 VAL 0.050000
191 C 4.000000 36.000000 0.000000 C.2 1 VAL 0.050000
192 C 4.000000 36.000000 4.000000 C.2 1 VAL 0.050000
193 C 4.000000 36.000000 8.000000 C.2 1 VAL 0.050000
194 C 4.000000 36.000000 12.000000 C.2 1 VAL 0.050000
195 C 4.000000 36.000000 16.000000 C.2 1 VAL 0.050000
196 C 4.000000 36.000000 20.000000 C.2 1 VAL 0.050000
197 C 4.000000 36.000000 24.000000 C.2 1 VAL 0.050000
198 C 4.000000 36.000000 28.000000 C.2 1 VAL 0.050000
199 C 4.000000 36.000000 32.000000 C.2 1 VAL 0.050000
200 C 4.000000 36.000000 36.000000 C.2 1 VAL 0.050000
201 C 8.000000 0.000000 0.000000 C.2 1 VAL 0.050000
202 C 8.000000 0.000000 4.000000 C.2 1 VAL 0.050000
203 C 8.000000 0.000000 8.000000 C.2 1 VAL 0.050000
204 C 8.000000 0.000000 12.000000 C.2 1 VAL 0.050000
205 C 8.000000 0.000000 16.000000 C.2 1 VAL 0.050000
206 C 8.000000 0.000000 20.000000 C.2 1 VAL 0.050000
207 C 8.000000 0.000000 24.000000 C.2 1 VAL 0.050000
208 C 8.000000 0.000000 28.000000 C.2 1 VAL 0.050000
209 C 8.000000 0.000000 32.000000 C.2 1 VAL 0.050000
210 C 8.000000 0.000000 36.000000 C.2 1 VAL 0.050000
211 C 8.000000 4.000000 0.000000 C.2 1 VAL 0.050000
212 C 8.000000 4.000000 4.000000 C.2 1 VAL 0.050000
213 C 8.000000 4.000000 8.000000 C.2 1 VAL 0.050000
214 C 8.000000 4.000000 12.000000 C.2 1 VAL 0.050000
215 C 8.000000 4.000000 16.000000 C.2 1 VAL 0.050000
216 C 8.000000 4.000000 20.000000 C.2 1 VAL 0.050000
217 C 8.000000 4.000000 24.000000 C.2 1 VAL 0.050000
218 C 8.000000 4.000000 28.000000 C.2 1 VAL 0.050000
219 C 8.000000 4.000000 32.000000 C.2 1 VAL 0.050000
220 C 8.000000 4.000000 36.000000 C.2 1 VAL 0.050000
221 C 8.000000 8.000000 0.000000 C.2 1 VAL 0.050000
222 C 8.000000 8.000000 4.000000 C.2 1 VAL 0.050000
223 C 8.000000 8.000000 8.000000 C.2 1 VAL 0.050000
224 C 8.000000 8.000000 12.000000 C.2 1 VAL 0.050000
225 C 8.000000 8.000000 16.000000 C.2 1 VAL 0.050000
226 C 8.000000 8.000000 20.000000 C.2 1 VAL 0.050000
227 C 8.000000 8.000000 24.000000 C.2 1 VAL 0.050000
228 C 8.000000 8.000000 28.000000 C.2 1 VAL 0.050000
229 C 8.000000 8.000000 32.000000 C.2 1 VAL 0.050000
230 C 8.000000 8.000000 36.000000 C.2 1 VAL 0.050000
231 C 8.000000 12.000000 0.000000 C.2 1 VAL 0.050000
232 C 8.000000 12.000000 4.000000 C.2 1 VAL 0.050000
233 C 8.000000 12.000000 8.000000 C.2 1 VAL 0.050000
234 C 8.000000 12.000000 12.000000 C.2 1 VAL 0.050000
235 C 8.000000 12.000000 16.000000 C.2 1 VAL 0.050000
236 C 8.000000 12.000000 20.000000 C.2 1 VAL 0.050000
237 C 8.000000 12.000000 24.000000 C.2 1 VAL 0.050000
238 C 8.000000 12.000000 28.000000 C.2 1 VAL 0.050000
239 C 8.000000 12.000000 32.000000 C.2 1 VAL 0.050000
240 C 8.000000 12.000000 36.000000 C.2 1 VAL 0.050000
241 C 8.000000 16.000000 0.000000 C.2 1 VAL 0.050000
242 C 8.000000 16.000000 4.000000 C.2 1 VAL 0.050000
243 C 8.000000 16.000000 8.000000 C.2 1 VAL 0.050000
244 C 8.000000 16.000000 12.000000 C.2 1 VAL 0.050000
245 C 8.000000 16.000000 16.000000 C.2 1 VAL 0.050000
246 C 8.000000 16.000000 20.000000 C.2 1 VAL 0.050000
247 C 8.000000 16.000000 24.000000 C.2 1 VAL 0.050000
248 C 8.000000 16.000000 28.000000 C.2 1 VAL 0.050000
249 C 8.000000 16.000000 32.000000 C.2 1 VAL 0.050000
250 C 8.000000 16.000000 36.000000 C.2 1 VAL 0.050000
251 C 8.000000 20.000000 0.000000 C.2 1 VAL 0.050000
252 C 8.000000 20.000000 4.000000 C.2 1 VAL 0.050000
253 C 8.000000 20.000000 8.000000 C.2 1 VAL 0.050000
254 C 8.000000 20.000000 12.000000 C.2 1 VAL 0.050000
255 C 8.000000 20.000000 16.000000 C.2 1 VAL 0.050000
256 C 8.000000 20.000000 20.000000 C.2 1 VAL 0.050000
257 C 8.000000 20.000000 24.000000 C.2 1 VAL 0.050000
258 C 8.000000 20.000000 28.000000 C.2 1 VAL 0.050000
259 C 8.000000 20.000000 32.000000 C.2 1 VAL 0.050000
260 C 8.000000 20.000000 36.000000 C.2 1 VAL 0.050000
261 C 8.000000 24.000000 0.000000 C.2 1 VAL 0.050000
262 C 8.000000 24.000000 4.000000 C.2 1 VAL 0.050000
263 C 8.000000 24.000000 8.000000 C.2 1 VAL 0.050000
264 C 8.000000 24.000000 12.000000 C.2 1 VAL 0.050000
265 C 8.000000 24.000000 16.000000 C.2 1 VAL 0.050000
266 C 8.000000 24.000000 20.000000 C.2 1 VAL 0.050000
267 C 8.000000 24.000000 24.000000 C.2 1 VAL 0.050000
268 C 8.000000 24.000000 28.000000 C.2 1 VAL 0.050000
269 C 8.000000 24.000000 32.000000 C.2 1 VAL 0.050000
270 C 8.000000 24.000000 36.000000 C.2 1 VAL 0.050000
271 C 8.000000 28.000000 0.000000 C.2 1 VAL 0.050000
272 C 8.000000 28.000000 4.000000 C.2 1 VAL 0.050000
273 C 8.000000 28.000000 8.000000 C.2 1 VAL 0.050000
274 C 8.000000 28.000000 12.000000 C.2 1 VAL 0.050000
275 C 8.000000 28.000000 16.000000 C.2 1 VAL 0.050000
276 C 8.000000 28.000000 20.000000 C.2 1 VAL 0.050000
277 C 8.000000 28.000000 24.000000 C.2 1 VAL 0.050000
278 C 8.000000 28.000000 28.000000 C.2 1 VAL 0.050000
279 C 8.000000 28.000000 32.000000 C.2 1 VAL 0.050000
280 C 8.000000 28.000000 36.000000 C.2 1 VAL 0.050000
281 C 8.000000 32.000000 0.000000 C.2 1 VAL 0.050000
282 C 8.000000 32.000000 4.000000 C.2 1 VAL 0.050000
283 C 8.000000 32.000000 8.000000 C.2 1 VAL 0.050000
284 C 8.000000 32.000000 12.000000 C.2 1 VAL 0.050000
285 C 8.000000 32.000000 16.000000 C.2 1 VAL 0.050000
286 C 8.000000 32.000000 20.000000 C.2 1 VAL 0.050000
287 C 8.000000 32.000000 24.000000 C.2 1 VAL 0.050000
288 C 8.000000 32.000000 28.000000 C.2 1 VAL 0.050000
289 C 8.000000 32.000000 32.000000 C.2 1 VAL 0.050000
290 C 8.000000 32.000000 36.000000 C.2 1 VAL 0.050000
291 C 8.000000 36.000000 0.000000 C.2 1 VAL 0.050000
292 C 8.000000 36.000000 4.000000 C.2 1 VAL 0.050000
293 C 8.000000 36.000000 8.000000 C.2 1 VAL 0.050000
294 C 8.000000 36.000000 12.000000 C.2 1 VAL 0.050000
295 C 8.000000 36.000000 16.000000 C.2 1 VAL 0.050000
296 C 8.000000 36.000000 20.000000 C.2 1 VAL 0.050000
297 C 8.000000 36.000000 24.000000 C.2 1 VAL 0.050000
298 C 8.000000 36.000000 28.000000 C.2 1 VAL 0.050000
299 C 8.000000 36.000000 32.000000 C.2 1 VAL 0.050000
300 C 8.000000 36.000000 36.000000 C.2 1 VAL 0.050000
301 C 12.000000 0.000000 0.000000 C.2 1 VAL 0.050000
302 C 12.000000 0.000000 4.000000 C.2 1 VAL 0.050000
303 C 12.000000 0.000000 8.000000 C.2 1 VAL 0.050000
304 C 12.000000 0.000000 12.000000 C.2 1 VAL 0.050000
305 C 12.000000 0.000000 16.000000 C.2 1 VAL 0.050000
306 C 12.000000 0.000000 20.000000 C.2 1 VAL 0.050000
307 C 12.000000 0.000000 24.000000 C.2 1 VAL 0.050000
308 C 12.000000 0.000000 28.000000 C.2 1 VAL 0.050000
309 C 12.000000 0.000000 32.000000 C.2 1 VAL 0.050000
310 C 12.000000 0.000000 36.000000 C.2 1 VAL 0.050000
311 C 12.000000 4.000000 0.000000 C.2 1 VAL 0.050000
312 C 12.000000 4.000000 4.000000 C.2 1 VAL 0.050000
313 C 12.000000 4.000000 8.000000 C.2 1 VAL 0.050000
314 C 12.000000 4.000000 12.000000 C.2 1 VAL 0.050000
315 C 12.000000 4.000000 16.000000 C.2 1 VAL 0.050000
316 C 12.000000 4.000000 20.000000 C.2 1 VAL 0.050000
317 C 12.000000 4.000000 24.000000 C.2 1 VAL 0.050000
318 C 12.000000 4.000000 28.000000 C.2 1 VAL 0.050000
319 C 12.000000 4.000000 32.000000 C.2 1 VAL 0.050000
320 C 12.000000 4.000000 36.000000 C.2 1 VAL 0.050000
321 C 12.000000 8.000000 0.000000 C.2 1 VAL 0.050000
322 C 12.000000 8.000000 4.000000 C.2 1 VAL 0.050000
323 C 12.000000 8.000000 8.000000 C.2 1 VAL 0.050000
324 C 12.000000 8.000000 12.000000 C.2 1 VAL 0.050000
325 C 12.000000 8.000000 16.000000 C.2 1 VAL 0.050000
326 C 12.000000 8.000000 20.000000 C.2 1 VAL 0.050000
327 C 12.000000 8.000000 24.000000 C.2 1 VAL 0.050000
328 C 12.000000 8.000000 28.000000 C.2 1 VAL 0.050000
329 C 12.000000 8.000000 32.000000 C.2 1 VAL 0.050000
330 C 12.000000 8.000000 36.000000 C.2 1 VAL 0.050000
331 C 12.000000 12.000000 0.000000 C.2 1 VAL 0.050000
332 C 12.000000 12.000000 4.000000 C.2 1 VAL 0.050000
333 C 12.000000 12.000000 8.000000 C.2 1 VAL 0.050000
334 C 12.000000 12.000000 12.000000 C.2 1 VAL 0.050000
335 C 12.000000 12.000000 16.000000 C.2 1 VAL 0.050000
336 C 12.000000 12.000000 20.000000 C.2 1 VAL 0.050000
337 C 12.000000 12.000000 24.000000 C.2 1 VAL 0.050000
338 C 12.000000 12.000000 28.000000 C.2 1 VAL 0.050000
339 C 12.000000 12.000000 32.000000 C.2 1 VAL 0.050000
340 C 12.000000 12.000000 36.000000 C.2 1 VAL 0.050000
341 C 12.000000 16.000000 0.000000 C.2 1 VAL 0.050000
342 C 12.000000 16.000000 4.000000 C.2 1 VAL 0.050000
343 C 12.000000 16.000000 8.000000 C.2 1 VAL 0.050000
344 C 12.000000 16.000000 12.000000 C.2 1 VAL 0.050000
345 C 12.000000 16.000000 16.000000 C.2 1 VAL 0.050000
346 C 12.000000 16.000000 20.000000 C.2 1 VAL 0.050000
347 C 12.000000 16.000000 24.000000 C.2 1 VAL 0.050000
348 C 12.000000 16.000000 28.000000 C.2 1 VAL 0.050000
349 C 12.000000 16.000000 32.000000 C.2 1 VAL 0.050000
350 C 12.000000 16.000000 36.000000 C.2 1 VAL 0.050000
351 C 12.000000 20.000000 0.000000 C.2 1 VAL 0.050000
352 C 12.000000 20.000000 4.000000 C.2 1 VAL 0.050000
353 C 12.000000 20.000000 8.000000 C.2 1 VAL 0.050000
354 C 12.000000 20.000000 12.000000 C.2 1 VAL 0.050000
355 C 12.000000 20.000000 16.000000 C.2 1 VAL 0.050000
356 C 12.000000 20.000000 20.000000 C.2 1 VAL 0.050000
357 C 12.000000 20.000000 24.000000 C.2 1 VAL 0.050000
358 C 12.000000 20.000000 28.000000 C.2 1 VAL 0.050000
359 C 12.000000 20.000000 32.000000 C.2 1 VAL 0.050000
360 C 12.000000 20.000000 36.000000 C.2 1 VAL 0.050000
361 C 12.000000 24.000000 0.000000 C.2 1 VAL 0.050000
362 C 12.000000 24.000000 4.000000 C.2 1 VAL 0.050000
363 C 12.000000 24.000000 8.000000 C.2 1 VAL 0.050000
364 C 12.000000 24.000000 12.000000 C.2 1 VAL 0.050000
365 C 12.000000 24.000000 16.000000 C.2 1 VAL 0.050000
366 C 12.000000 24.000000 20.000000 C.2 1 VAL 0.050000
367 C 12.000000 24.000000 24.000000 C.2 1 VAL 0.050000
368 C 12.000000 24.000000 28.000000 C.2 1 VAL 0.050000
369 C 12.000000 24.000000 32.000000 C.2 1 VAL 0.050000
370 C 12.000000 24.000000 36.000000 C.2 1 VAL 0.050000
371 C 12.000000 28.000000 0.000000 C.2 1 VAL 0.050000
372 C 12.000000 28.000000 4.000000 C.2 1 VAL 0.050000
373 C 12.000000 28.000000 8.000000 C.2 1 VAL 0.050000
374 C 12.000000 28.000000 12.000000 C.2 1 VAL 0.050000
375 C 12.000000 28.000000 16.000000 C.2 1 VAL 0.050000
376 C 12.000000 28.000000 20.000000 C.2 1 VAL 0.050000
377 C 12.000000 28.000000 24.000000 C.2 1 VAL 0.050000
378 C 12.000000 28.000000 28.000000 C.2 1 VAL 0.050000
379 C 12.000000 28.000000 32.000000 C.2 1 VAL 0.050000
380 C 12.000000 28.000000 36.000000 C.2 1 VAL 0.050000
381 C 12.000000 32.000000 0.000000 C.2 1 VAL 0.050000
382 C 12.000000 32.000000 4.000000 C.2 1 VAL 0.050000
383 C 12.000000 32.000000 8.000000 C.2 1 VAL 0.050000
384 C 12.000000 32.000000 12.000000 C.2 1 VAL 0.050000
385 C 12.000000 32.000000 16.000000 C.2 1 VAL 0.050000
386 C 12.000000 32.000000 20.000000 C.2 1 VAL 0.050000
387 C 12.000000 32.000000 24.000000 C.2 1 VAL 0.050000
388 C 12.000000 32.000000 28.000000 C.2 1 VAL 0.050000
389 C 12.000000 32.000000 32.000000 C.2 1 VAL 0.050000
390 C 12.000000 32.000000 36.000000 C.2 1 VAL 0.050000
391 C 12.000000 36.000000 0.000000 C.2 1 VAL 0.050000
392 C 12.000000 36.000000 4.000000 C.2 1 VAL 0.050000
393 C 12.000000 36.000000 8.000000 C.2 1 VAL 0.050000
394 C 12.000000 36.000000 12.000000 C.2 1 VAL 0.050000
395 C 12.000000 36.000000 16.000000 C.2 1 VAL 0.050000
396 C 12.000000 36.000000 20.000000 C.2 1 VAL 0.050000
397 C 12.000000 36.000000 24.000000 C.2 1 VAL 0.050000
398 C 12.000000 36.000000 28.000000 C.2 1 VAL 0.050000
399 C 12.000000 36.000000 32.000000 C.2 1 VAL 0.050000
400 C 12.000000 36.000000 36.000000 C.2 1 VAL 0.050000
401 C 16.000000 0.000000 0.000000 C.2 1 VAL 0.050000
402 C 16.000000 0.000000 4.000000 C.2 1 VAL 0.050000
403 C 16.000000 0.000000 8.000000 C.2 1 VAL 0.050000
404 C 16.000000 0.000000 12.000000 C.2 1 VAL 0.050000
405 C 16.000000 0.000000 16.000000 C.2 1 VAL 0.050000
406 C 16.000000 0.000000 20.000000 C.2 1 VAL 0.050000
407 C 16.000000 0.000000 24.000000 C.2 1 VAL 0.050000
408 C 16.000000 0.000000 28.000000 C.2 1 VAL 0.050000
409 C 16.000000 0.000000 32.000000 C.2 1 VAL 0.050000
410 C 16.000000 0.000000 36.000000 C.2 1 VAL 0.050000
411 C 16.000000 4.000000 0.000000 C.2 1 VAL 0.050000
412 C 16.000000 4.000000 4.000000 C.2 1 VAL 0.050000
413 C 16.000000 4.000000 8.000000 C.2 1 VAL 0.050000
414 C 16.000000 4.000000 12.000000 C.2 1 VAL 0.050000
415 C 16.000000 4.000000 16.000000 C.2 1 VAL 0.050000
416 C 16.000000 4.000000 20.000000 C.2 1 VAL 0.050000
417 C 16.000000 4.000000 24.000000 C.2 1 VAL 0.050000
418 C 16.000000 4.000000 28.000000 C.2 1 VAL 0.050000
419 C 16.000000 4.000000 32.000000 C.2 1 VAL 0.050000
420 C 16.000000 4.000000 36.000000 C.2 1 VAL 0.050000
421 C 16.000000 8.000000 0.000000 C.2 1 VAL 0.050000
422 C 16.000000 8.000000 4.000000 C.2 1 VAL 0.050000
423 C 16.000000 8.000000 8.000000 C.2 1 VAL 0.050000
424 C 16.000000 8.000000 12.000000 C.2 1 VAL 0.050000
425 C 16.000000 8.000000 16.000000 C.2 1 VAL 0.050000
426 C 16.000000 8.000000 20.000000 C.2 1 VAL 0.050000
427 C 16.000000 8.000000 24.000000 C.2 1 VAL 0.050000
428 C 16.000000 8.000000 28.000000 C.2 1 VAL 0.050000
429 C 16.000000 8.000000 32.000000 C.2 1 VAL 0.050000
430 C 16.000000 8.000000 36.000000 C.2 1 VAL 0.050000
431 C 16.000000 12.000000 0.000000 C.2 1 VAL 0.050000
432 C 16.000000 12.000000 4.000000 C.2 1 VAL 0.050000
433 C 16.000000 12.000000 8.000000 C.2 1 VAL 0.050000
434 C 16.000000 12.000000 12.000000 C.2 1 VAL 0.050000
435 C 16.000000 12.000000 16.000000 C.2 1 VAL 0.050000
436 C 16.000000 12.000000 20.000000 C.2 1 VAL 0.050000
437 C 16.000000 12.000000 24.000000 C.2 1 VAL 0.050000
438 C 16.000000 12.000000 28.000000 C.2 1 VAL 0.050000
439 C 16.000000 12.000000 32.000000 C.2 1 VAL 0.050000
440 C 16.000000 12.000000 36.000000 C.2 1 VAL 0.050000
441 C 16.000000 16.000000 0.000000 C.2 1 VAL 0.050000
442 C 16.000000 16.000000 4.000000 C.2 1 VAL 0.050000
443 C 16.000000 16.000000 8.000000 C.2 1 VAL 0.050000
444 C 16.000000 16.000000 12.000000 C.2 1 VAL 0.050000
445 C 16.000000 16.000000 16.000000 C.2 1 VAL 0.050000
446 C 16.000000 16.000000 20.000000 C.2 1 VAL 0.050000
447 C 16.000000 16.000000 24.000000 C.2 1 VAL 0.050000
448 C 16.000000 16.000000 28.000000 C.2 1 VAL 0.050000
449 C 16.000000 16.000000 32.000000 C.2 1 VAL 0.050000
450 C 16.000000 16.000000 36.000000 C.2 1 VAL 0.050000
451 C 16.000000 20.000000 0.000000 C.2 1 VAL 0.050000
452 C 16.000000 20.000000 4.000000 C.2 1 VAL 0.050000
453 C 16.000000 20.000000 8.000000 C.2 1 VAL 0.050000
454 C 16.000000 20.000000 12.000000 C.2 1 VAL 0.050000
455 C 16.000000 20.000000 16.000000 C.2 1 VAL 0.050000
456 C 16.000000 20.000000 20.000000 C.2 1 VAL 0.050000
457 C 16.000000 20.000000 24.000000 C.2 1 VAL 0.050000
458 C 16.000000 20.000000 28.000000 C.2 1 VAL 0.050000
459 C 16.000000 20.000000 32.000000 C.2 1 VAL 0.050000
460 C 16.000000 20.000000 36.000000 C.2 1 VAL 0.050000
461 C 16.000000 24.000000 0.000000 C.2 1 VAL 0.050000
462 C 16.000000 24.000000 4.000000 C.2 1 VAL 0.050000
463 C 16.000000 24.000000 8.000000 C.2 1 VAL 0.050000
464 C 16.000000 24.000000 12.000000 C.2 1 VAL 0.050000
465 C 16.000000 24.000000 16.000000 C.2 1 VAL 0.050000
466 C 16.000000 24.000000 20.000000 C.2 1 VAL 0.050000
467 C 16.000000 24.000000 24.000000 C.2 1 VAL 0.050000
468 C 16.000000 24.000000 28.000000 C.2 1 VAL 0.050000
469 C 16.000000 24.000000 32.000000 C.2 1 VAL 0.050000
470 C 16.000000 24.000000 36.000000 C.2 1 VAL 0.050000
471 C 16.000000 28.000000 0.000000 C.2 1 VAL 0.050000
472 C 16.000000 28.000000 4.000000 C.2 1 VAL 0.050000
473 C 16.000000 28.000000 8.000000 C.2 1 VAL 0.050000
474 C 16.000000 28.000000 12.000000 C.2 1 VAL 0.050000
475 C 16.000000 28.000000 16.000000 C.2 1 VAL 0.050000
476 C 16.000000 28.000000 20.000000 C.2 1 VAL 0.050000
477 C 16.000000 28.000000 24.000000 C.2 1 VAL 0.050000
478 C 16.000000 28.000000 28.000000 C.2 1 VAL 0.050000
479 C 16.000000 28.000000 32.000000 C.2 1 VAL 0.050000
480 C 16.000000 28.000000 36.000000 C.2 1 VAL 0.050000
481 C 16.000000 32.000000 0.000000 C.2 1 VAL 0.050000
482 C 16.000000 32.000000 4.000000 C.2 1 VAL 0.050000
483 C 16.000000 32.000000 8.000000 C.2 1 VAL 0.050000
484 C 16.000000 32.000000 12.000000 C.2 1 VAL 0.050000
485 C 16.000000 32.000000 16.000000 C.2 1 VAL 0.050000
486 C 16.000000 32.000000 20.000000 C.2 1 VAL 0.050000
487 C 16.000000 32.000000 24.000000 C.2 1 VAL 0.050000
488 C 16.000000 32.000000 28.000000 C.2 1 VAL 0.050000
489 C 16.000000 32.000000 32.000000 C.2 1 VAL 0.050000
490 C 16.000000 32.000000 36.000000 C.2 1 VAL 0.050000
491 C 16.000000 36.000000 0.000000 C.2 1 VAL 0.050000
492 C 16.000000 36.000000 4.000000 C.2 1 VAL 0.050000
493 C 16.000000 36.000000 8.000000 C.2 1 VAL 0.050000
494 C 16.000000 36.000000 12.000000 C.2 1 VAL 0.050000
495 C 16.000000 36.000000 16.000000 C.2 1 VAL 0.050000
496 C 16.000000 36.000000 20.000000 C.2 1 VAL 0.050000
497 C 16.000000 36.000000 24.000000 C.2 1 VAL 0.050000
498 C 16.000000 36.000000 28.000000 C.2 1 VAL 0.050000
499 C 16.000000 36.000000 32.000000 C.2 1 VAL 0.050000
500 C 16.000000 36.000000 36.000000 C.2 1 VAL 0.050000
501 C 20.000000 12.000000 12.000000 C.2 1 VAL -0.150000
502 C 20.000000 12.000000 16.000000 C.2 1 VAL -0.150000
503 C 20.000000 12.000000 20.000000 C.2 1 VAL -0.150000
504 C 20.000000 12.000000 24.000000 C.2 1 VAL -0.150000
505 C 20.000000 16.000000 12.000000 C.2 1 VAL -0.150000
506 C 20.000000 16.000000 16.000000 C.2 1 VAL -0.150000
507 C 20.000000 16.000000 20.000000 C.2 1 VAL -0.150000
508 C 20.000000 16.000000 24.000000 C.2 1 VAL -0.150000
509 C 20.000000 20.000000 12.000000 C.2 1 VAL -0.150000
510 C 20.000000 20.000000 16.000000 C.2 1 VAL -0.150000
511 C 20.000000 20.000000 20.000000 C.2 1 VAL -0.150000
512 C 20.000000 20.000000 24.000000 C.2 1 VAL -0.150000
513 C 20.000000 24.000000 12.000000 C.2 1 VAL -0.150000
514 C 20.000000 24.000000 16.000000 C.2 1 VAL -0.150000
515 C 20.000000 24.000000 20.000000 C.2 1 VAL -0.150000
516 C 20.000000 24.000000 24.000000 C.2 1 VAL -0.150000
517 C 24.000000 12.000000 12.000000 C.2 1 VAL -0.150000
518 C 24.000000 12.000000 16.000000 C.2 1 VAL -0.150000
519 C 24.000000 12.000000 20.000000 C.2 1 VAL -0.150000
520 C 24.000000 12.000000 24.000000 C.2 1 VAL -0.150000
521 C 24.000000 16.000000 12.000000 C.2 1 VAL -0.150000
522 C 24.000000 16.000000 16.000000 C.2 1 VAL -0.150000
523 C 24.000000 16.000000 20.000000 C.2 1 VAL -0.150000
524 C 24.000000 16.000000 24.000000 C.2 1 VAL -0.150000
525 C 24.000000 20.000000 12.000000 C.2 1 VAL -0.150000
526 C 24.000000 20.000000 16.000000 C.2 1 VAL -0.150000
527 C 24.000000 20.000000 20.000000 C.2 1 VAL -0.150000
528 C 24.000000 20.000000 24.000000 C.2 1 VAL -0.150000
529 C 24.000000 24.000000 12.000000 C.2 1 VAL -0.150000
530 C 24.000000 24.000000 16.000000 C.2 1 VAL -0.150000
531 C 24.000000 24.000000 20.000000 C.2 1 VAL -0.150000
532 C 24.000000 24.000000 24.000000 C.2 1 VAL -0.150000
533 C 28.000000 12.000000 12.000000 C.2 1 VAL -0.150000
534 C 28.000000 12.000000 16.000000 C.2 1 VAL -0.150000
535 C 28.000000 12.000000 20.000000 C.2 1 VAL -0.150000
536 C 28.000000 12.000000 24.000000 C.2 1 VAL -0.150000
537 C 28.000000 16.000000 12.000000 C.2 1 VAL -0.150000
538 C 28.000000 16.000000 16.000000 C.2 1 VAL -0.150000
539 C 28.000000 16.000000 20.000000 C.2 1 VAL -0.150000
540 C 28.000000 16.000000 24.000000 C.2 1 VAL -0.150000
541 C 28.000000 20.000000 12.000000 C.2 1 VAL -0.150000
542 C 28.000000 20.000000 16.000000 C.2 1 VAL -0.150000
543 C 28.000000 20.000000 20.000000 C.2 1 VAL -0.150000
544 C 28.000000 20.000000 24.000000 C.2 1 VAL -0.150000
545 C 28.000000 24.000000 12.000000 C.2 1 VAL -0.150000
546 C 28.000000 24.000000 16.000000 C.2 1 VAL -0.150000
547 C 28.000000 24.000000 20.000000 C.2 1 VAL -0.150000
548 C 28.000000 24.000000 24.000000 C.2 1 VAL -0.150000
549 C 32.000000 12.000000 12.000000 C.2 1 VAL -0.150000
550 C 32.000000 12.000000 16.000000 C.2 1 VAL -0.150000
551 C 32.000000 12.000000 20.000000 C.2 1 VAL -0.150000
552 C 32.000000 12.000000 24.000000 C.2 1 VAL -0.150000
553 C 32.000000 16.000000 12.000000 C.2 1 VAL -0.150000
554 C 32.000000 16.000000 16.000000 C.2 1 VAL -0.150000
555 C 32.000000 16.000000 20.000000 C.2 1 VAL -0.150000
556 C 32.000000 16.000000 24.000000 C.2 1 VAL -0.150000
557 C 32.000000 20.000000 12.000000 C.2 1 VAL -0.150000
558 C 32.000000 20.000000 16.000000 C.2 1 VAL -0.150000
559 C 32.000000 20.000000 20.000000 C.2 1 VAL -0.150000
560 C 32.000000 20.000000 24.000000 C.2 1 VAL -0.150000
561 C 32.000000 24.000000 12.000000 C.2 1 VAL -0.150000
562 C 32.000000 24.000000 16.000000 C.2 1 VAL -0.150000
563 C 32.000000 24.000000 20.000000 C.2 1 VAL -0.150000
564 C 32.000000 24.000000 24.000000 C.2 1 VAL -0.150000
565 C 36.000000 12.000000 12.000000 C.2 1 VAL -0.150000
566 C 36.000000 12.000000 16.000000 C.2 1 VAL -0.150000
567 C 36.000000 12.000000 20.000000 C.2 1 VAL -0.150000
568 C 36.000000 12.000000 24.000000 C.2 1 VAL -0.150000
569 C 36.000000 16.000000 12.000000 C.2 1 VAL -0.150000
570 C 36.000000 16.000000 16.000000 C.2 1 VAL -0.150000
571 C 36.000000 16.000000 20.000000 C.2 1 VAL -0.150000
572 C 36.000000 16.000000 24.000000 C.2 1 VAL -0.150000
573 C 36.000000 20.000000 12.000000 C.2 1 VAL -0.150000
574 C 36.000000 20.000000 16.000000 C.2 1 VAL -0.150000
575 C 36.000000 20.000000 20.000000 C.2 1 VAL -0.150000
576 C 36.000000 20.000000 24.000000 C.2 1 VAL -0.150000
577 C 36.000000 24.000000 12.000000 C.2 1 VAL -0.150000
578 C 36.000000 24.000000 16.000000 C.2 1 VAL -0.150000
579 C 36.000000 24.000000 20.000000 C.2 1 VAL -0.150000
580 C 36.000000 24.000000 24.000000 C.2 1 VAL -0.150000
