@<TRIPOS>MOLECULE
Custom
920 0
Custom
CustomCharges

@<TRIPOS>ATOM
1 C 0.000000 0.000000 0.000000 C.2 1 VAL -0.050000
2 C 0.000000 0.000000 4.000000 C.2 1 VAL -0.050000
3 C 0.000000 0.000000 8.000000 C.2 1 VAL -0.050000
4 C 0.000000 0.000000 12.000000 C.2 1 VAL -0.050000
5 C 0.000000 0.000000 16.000000 C.2 1 VAL -0.050000
6 C 0.000000 0.000000 20.000000 C.2 1 VAL -0.050000
7 C 0.000000 0.000000 24.000000 C.2 1 VAL -0.050000
8 C 0.000000 0.000000 28.000000 C.2 1 VAL -0.050000
9 C 0.000000 0.000000 32.000000 C.2 1 VAL -0.050000
10 C 0.000000 0.000000 36.000000 C.2 1 VAL -0.050000
11 C 0.000000 4.000000 0.000000 C.2 1 VAL -0.050000
12 C 0.000000 4.000000 4.000000 C.2 1 VAL -0.050000
13 C 0.000000 4.000000 8.000000 C.2 1 VAL -0.050000
14 C 0.000000 4.000000 12.000000 C.2 1 VAL -0.050000
15 C 0.000000 4.000000 16.000000 C.2 1 VAL -0.050000
16 C 0.000000 4.000000 20.000000 C.2 1 VAL -0.050000
17 C 0.000000 4.000000 24.000000 C.2 1 VAL -0.050000
18 C 0.000000 4.000000 28.000000 C.2 1 VAL -0.050000
19 C 0.000000 4.000000 32.000000 C.2 1 VAL -0.050000
20 C 0.000000 4.000000 36.000000 C.2 1 VAL -0.050000
21 C 0.000000 8.000000 0.000000 C.2 1 VAL -0.050000
22 C 0.000000 8.000000 4.000000 C.2 1 VAL -0.050000
23 C 0.000000 8.000000 8.000000 C.2 1 VAL -0.050000
24 C 0.000000 8.000000 12.000000 C.2 1 VAL -0.050000
25 C 0.000000 8.000000 16.000000 C.2 1 VAL -0.050000
26 C 0.000000 8.000000 20.000000 C.2 1 VAL -0.050000
27 C 0.000000 8.000000 24.000000 C.2 1 VAL -0.050000
28 C 0.000000 8.000000 28.000000 C.2 1 VAL -0.050000
29 C 0.000000 8.000000 32.000000 C.2 1 VAL -0.050000
30 C 0.000000 8.000000 36.000000 C.2 1 VAL -0.050000
31 C 0.000000 12.000000 0.000000 C.2 1 VAL -0.050000
32 C 0.000000 12.000000 4.000000 C.2 1 VAL -0.050000
33 C 0.000000 12.000000 8.000000 C.2 1 VAL -0.050000
34 C 0.000000 12.000000 12.000000 C.2 1 VAL -0.050000
35 C 0.000000 12.000000 16.000000 C.2 1 VAL -0.050000
36 C 0.000000 12.000000 20.000000 C.2 1 VAL -0.050000
37 C 0.000000 12.000000 24.000000 C.2 1 VAL -0.050000
38 C 0.000000 12.000000 28.000000 C.2 1 VAL -0.050000
39 C 0.000000 12.000000 32.000000 C.2 1 VAL -0.050000
40 C 0.000000 12.000000 36.000000 C.2 1 VAL -0.050000
41 C 0.000000 16.000000 0.000000 C.2 1 VAL -0.050000
42 C 0.000000 16.000000 4.000000 C.2 1 VAL -0.050000
43 C 0.000000 16.000000 8.000000 C.2 1 VAL -0.050000
44 C 0.000000 16.000000 12.000000 C.2 1 VAL -0.050000
45 C 0.000000 16.000000 16.000000 C.2 1 VAL -0.050000
46 C 0.000000 16.000000 20.000000 C.2 1 VAL -0.050000
47 C 0.000000 16.000000 24.000000 C.2 1 VAL -0.050000
48 C 0.000000 16.000000 28.000000 C.2 1 VAL -0.050000
49 C 0.000000 16.000000 32.000000 C.2 1 VAL -0.050000
50 C 0.000000 16.000000 36.000000 C.2 1 VAL -0.050000
51 C 0.000000 20.000000 0.000000 C.2 1 VAL -0.050000
52 C 0.000000 20.000000 4.000000 C.2 1 VAL -0.050000
53 C 0.000000 20.000000 8.000000 C.2 1 VAL -0.050000
54 C 0.000000 20.000000 12.000000 C.2 1 VAL -0.050000
55 C 0.000000 20.000000 16.000000 C.2 1 VAL -0.050000
56 C 0.000000 20.000000 20.000000 C.2 1 VAL -0.050000
57 C 0.000000 20.000000 24.000000 C.2 1 VAL -0.050000
58 C 0.000000 20.000000 28.000000 C.2 1 VAL -0.050000
59 C 0.000000 20.000000 32.000000 C.2 1 VAL -0.050000
60 C 0.000000 20.000000 36.000000 C.2 1 VAL -0.050000
61 C 0.000000 24.000000 0.000000 C.2 1 VAL -0.050000
62 C 0.000000 24.000000 4.000000 C.2 1 VAL -0.050000
63 C 0.000000 24.000000 8.000000 C.2 1 VAL -0.050000
64 C 0.000000 24.000000 12.000000 C.2 1 VAL -0.050000
65 C 0.000000 24.000000 16.000000 C.2 1 VAL -0.050000
66 C 0.000000 24.000000 20.000000 C.2 1 VAL -0.050000
67 C 0.000000 24.000000 24.000000 C.2 1 VAL -0.050000
68 C 0.000000 24.000000 28.000000 C.2 1 VAL -0.050000
69 C 0.000000 24.000000 32.000000 C.2 1 VAL -0.050000
70 C 0.000000 24.000000 36.000000 C.2 1 VAL -0.050000
71 C 0.000000 28.000000 0.000000 C.2 1 VAL -0.050000
72 C 0.000000 28.000000 4.000000 C.2 1 VAL -0.050000
73 C 0.000000 28.000000 8.000000 C.2 1 VAL -0.050000
74 C 0.000000 28.000000 12.000000 C.2 1 VAL -0.050000
75 C 0.000000 28.000000 16.000000 C.2 1 VAL -0.050000
76 C 0.000000 28.000000 20.000000 C.2 1 VAL -0.050000
77 C 0.000000 28.000000 24.000000 C.2 1 VAL -0.050000
78 C 0.000000 28.000000 28.000000 C.2 1 VAL -0.050000
79 C 0.000000 28.000000 32.000000 C.2 1 VAL -0.050000
80 C 0.000000 28.000000 36.000000 C.2 1 VAL -0.050000
81 C 0.000000 32.000000 0.000000 C.2 1 VAL -0.050000
82 C 0.000000 32.000000 4.000000 C.2 1 VAL -0.050000
83 C 0.000000 32.000000 8.000000 C.2 1 VAL -0.050000
84 C 0.000000 32.000000 12.000000 C.2 1 VAL -0.050000
85 C 0.000000 32.000000 16.000000 C.2 1 VAL -0.050000
86 C 0.000000 32.000000 20.000000 C.2 1 VAL -0.050000
87 C 0.000000 32.000000 24.000000 C.2 1 VAL -0.050000
88 C 0.000000 32.000000 28.000000 C.2 1 VAL -0.050000
89 C 0.000000 32.000000 32.000000 C.2 1 VAL -0.050000
90 C 0.000000 32.000000 36.000000 C.2 1 VAL -0.050000
91 C 0.000000 36.000000 0.000000 C.2 1 VAL -0.050000
92 C 0.000000 36.000000 4.000000 C.2 1 VAL -0.050000
93 C 0.000000 36.000000 8.000000 C.2 1 VAL -0.050000
94 C 0.000000 36.000000 12.000000 C.2 1 VAL -0.050000
95 C 0.000000 36.000000 16.000000 C.2 1 VAL -0.050000
96 C 0.000000 36.000000 20.000000 C.2 1 VAL -0.050000
97 C 0.000000 36.000000 24.000000 C.2 1 VAL -0.050000
98 C 0.000000 36.000000 28.000000 C.2 1 VAL -0.050000
99 C 0.000000 36.000000 32.000000 C.2 1 VAL -0.050000
100 C 0.000000 36.000000 36.000000 C.2 1 VAL -0.050000
101 C 4.000000 0.000000 0.000000 C.2 1 VAL -0.050000
102 C 4.000000 0.000000 4.000000 C.2 1 VAL -0.050000
103 C 4.000000 0.000000 8.000000 C.2 1 VAL -0.050000
104 C 4.000000 0.000000 12.000000 C.2 1 VAL -0.050000
105 C 4.000000 0.000000 16.000000 C.2 1 VAL -0.050000
106 C 4.000000 0.000000 20.000000 C.2 1 VAL -0.050000
107 C 4.000000 0.000000 24.000000 C.2 1 VAL -0.050000
108 C 4.000000 0.000000 28.000000 C.2 1 VAL -0.050000
109 C 4.000000 0.000000 32.000000 C.2 1 VAL -0.050000
110 C 4.000000 0.000000 36.000000 C.2 1 VAL -0.050000
111 C 4.000000 4.000000 0.000000 C.2 1 VAL -0.050000
112 C 4.000000 4.000000 4.000000 C.2 1 VAL -0.050000
113 C 4.000000 4.000000 8.000000 C.2 1 VAL -0.050000
114 C 4.000000 4.000000 12.000000 C.2 1 VAL -0.050000
115 C 4.000000 4.000000 16.000000 C.2 1 VAL -0.050000
116 C 4.000000 4.000000 20.000000 C.2 1 VAL -0.050000
117 C 4.000000 4.000000 24.000000 C.2 1 VAL -0.050000
118 C 4.000000 4.000000 28.000000 C.2 1 VAL -0.050000
119 C 4.000000 4.000000 32.000000 C.2 1 VAL -0.050000
120 C 4.000000 4.000000 36.000000 C.2 1 VAL -0.050000
121 C 4.000000 8.000000 0.000000 C.2 1 VAL -0.050000
122 C 4.000000 8.000000 4.000000 C.2 1 VAL -0.050000
123 C 4.000000 8.000000 8.000000 C.2 1 VAL -0.050000
124 C 4.000000 8.000000 12.000000 C.2 1 VAL -0.050000
125 C 4.000000 8.000000 16.000000 C.2 1 VAL -0.050000
126 C 4.000000 8.000000 20.000000 C.2 1 VAL -0.050000
127 C 4.000000 8.000000 24.000000 C.2 1 VAL -0.050000
128 C 4.000000 8.000000 28.000000 C.2 1 VAL -0.050000
129 C 4.000000 8.000000 32.000000 C.2 1 VAL -0.050000
130 C 4.000000 8.000000 36.000000 C.2 1 VAL -0.050000
131 C 4.000000 12.000000 0.000000 C.2 1 VAL -0.050000
132 C 4.000000 12.000000 4.000000 C.2 1 VAL -0.050000
133 C 4.000000 12.000000 8.000000 C.2 1 VAL -0.050000
134 C 4.000000 12.000000 12.000000 C.2 1 VAL -0.050000
135 C 4.000000 12.000000 16.000000 C.2 1 VAL -0.050000
136 C 4.000000 12.000000 20.000000 C.2 1 VAL -0.050000
137 C 4.000000 12.000000 24.000000 C.2 1 VAL -0.050000
138 C 4.000000 12.000000 28.000000 C.2 1 VAL -0.050000
139 C 4.000000 12.000000 32.000000 C.2 1 VAL -0.050000
140 C 4.000000 12.000000 36.000000 C.2 1 VAL -0.050000
141 C 4.000000 16.000000 0.000000 C.2 1 VAL -0.050000
142 C 4.000000 16.000000 4.000000 C.2 1 VAL -0.050000
143 C 4.000000 16.000000 8.000000 C.2 1 VAL -0.050000
144 C 4.000000 16.000000 12.000000 C.2 1 VAL -0.050000
145 C 4.000000 16.000000 16.000000 C.2 1 VAL -0.050000
146 C 4.000000 16.000000 20.000000 C.2 1 VAL -0.050000
147 C 4.000000 16.000000 24.000000 C.2 1 VAL -0.050000
148 C 4.000000 16.000000 28.000000 C.2 1 VAL -0.050000
149 C 4.000000 16.000000 32.000000 C.2 1 VAL -0.050000
150 C 4.000000 16.000000 36.000000 C.2 1 VAL -0.050000
151 C 4.000000 20.000000 0.000000 C.2 1 VAL -0.050000
152 C 4.000000 20.000000 4.000000 C.2 1 VAL -0.050000
153 C 4.000000 20.000000 8.000000 C.2 1 VAL -0.050000
154 C 4.000000 20.000000 12.000000 C.2 1 VAL -0.050000
155 C 4.000000 20.000000 16.000000 C.2 1 VAL -0.050000
156 C 4.000000 20.000000 20.000000 C.2 1 VAL -0.050000
157 C 4.000000 20.000000 24.000000 C.2 1 VAL -0.050000
158 C 4.000000 20.000000 28.000000 C.2 1 VAL -0.050000
159 C 4.000000 20.000000 32.000000 C.2 1 VAL -0.050000
160 C 4.000000 20.000000 36.000000 C.2 1 VAL -0.050000
161 C 4.000000 24.000000 0.000000 C.2 1 VAL -0.050000
162 C 4.000000 24.000000 4.000000 C.2 1 VAL -0.050000
163 C 4.000000 24.000000 8.000000 C.2 1 VAL -0.050000
164 C 4.000000 24.000000 12.000000 C.2 1 VAL -0.050000
165 C 4.000000 24.000000 16.000000 C.2 1 VAL -0.050000
166 C 4.000000 24.000000 20.000000 C.2 1 VAL -0.050000
167 C 4.000000 24.000000 24.000000 C.2 1 VAL -0.050000
168 C 4.000000 24.000000 28.000000 C.2 1 VAL -0.050000
169 C 4.000000 24.000000 32.000000 C.2 1 VAL -0.050000
170 C 4.000000 24.000000 36.000000 C.2 1 VAL -0.050000
171 C 4.000000 28.000000 0.000000 C.2 1 VAL -0.050000
172 C 4.000000 28.000000 4.000000 C.2 1 VAL -0.050000
173 C 4.000000 28.000000 8.000000 C.2 1 VAL -0.050000
174 C 4.000000 28.000000 12.000000 C.2 1 VAL -0.050000
175 C 4.000000 28.000000 16.000000 C.2 1 VAL -0.050000
176 C 4.000000 28.000000 20.000000 C.2 1 VAL -0.050000
177 C 4.000000 28.000000 24.000000 C.2 1 VAL -0.050000
178 C 4.000000 28.000000 28.000000 C.2 1 VAL -0.050000
179 C 4.000000 28.000000 32.000000 C.2 1 VAL -0.050000
180 C 4.000000 28.000000 36.000000 C.2 1 VAL -0.050000
181 C 4.000000 32.000000 0.000000 C.2 1 VAL -0.050000
182 C 4.000000 32.000000 4.000000 C.2 1 VAL -0.050000
183 C 4.000000 32.000000 8.000000 C.2 1 VAL -0.050000
184 C 4.000000 32.000000 12.000000 C.2 1 VAL -0.050000
185 C 4.000000 32.000000 16.000000 C.2 1 VAL -0.050000
186 C 4.000000 32.000000 20.000000 C.2 1 VAL -0.050000
187 C 4.000000 32.000000 24.000000 C.2 1 VAL -0.050000
188 C 4.000000 32.000000 28.000000 C.2 1 VAL -0.050000
189 C 4.000000 32.000000 32.000000 C.2 1 VAL -0.050000
190 C 4.000000 32.000000 36.000000 C.2 1 VAL -0.050000
191 C 4.000000 36.000000 0.000000 C.2 1 VAL -0.050000
192 C 4.000000 36.000000 4.000000 C.2 1 VAL -0.050000
193 C 4.000000 36.000000 8.000000 C.2 1 VAL -0.050000
194 C 4.000000 36.000000 12.000000 C.2 1 VAL -0.050000
195 C 4.000000 36.000000 16.000000 C.2 1 VAL -0.050000
196 C 4.000000 36.000000 20.000000 C.2 1 VAL -0.050000
197 C 4.000000 36.000000 24.000000 C.2 1 VAL -0.050000
198 C 4.000000 36.000000 28.000000 C.2 1 VAL -0.050000
199 C 4.000000 36.000000 32.000000 C.2 1 VAL -0.050000
200 C 4.000000 36.000000 36.000000 C.2 1 VAL -0.050000
201 C 8.000000 0.000000 0.000000 C.2 1 VAL -0.050000
202 C 8.000000 0.000000 4.000000 C.2 1 VAL -0.050000
203 C 8.000000 0.000000 8.000000 C.2 1 VAL -0.050000
204 C 8.000000 0.000000 12.000000 C.2 1 VAL -0.050000
205 C 8.000000 0.000000 16.000000 C.2 1 VAL -0.050000
206 C 8.000000 0.000000 20.000000 C.2 1 VAL -0.050000
207 C 8.000000 0.000000 24.000000 C.2 1 VAL -0.050000
208 C 8.000000 0.000000 28.000000 C.2 1 VAL -0.050000
209 C 8.000000 0.000000 32.000000 C.2 1 VAL -0.050000
210 C 8.000000 0.000000 36.000000 C.2 1 VAL -0.050000
211 C 8.000000 4.000000 0.000000 C.2 1 VAL -0.050000
212 C 8.000000 4.000000 4.000000 C.2 1 VAL -0.050000
213 C 8.000000 4.000000 8.000000 C.2 1 VAL -0.050000
214 C 8.000000 4.000000 12.000000 C.2 1 VAL -0.050000
215 C 8.000000 4.000000 16.000000 C.2 1 VAL -0.050000
216 C 8.000000 4.000000 20.000000 C.2 1 VAL -0.050000
217 C 8.000000 4.000000 24.000000 C.2 1 VAL -0.050000
218 C 8.000000 4.000000 28.000000 C.2 1 VAL -0.050000
219 C 8.000000 4.000000 32.000000 C.2 1 VAL -0.050000
220 C 8.000000 4.000000 36.000000 C.2 1 VAL -0.050000
221 C 8.000000 8.000000 0.000000 C.2 1 VAL -0.050000
222 C 8.000000 8.000000 4.000000 C.2 1 VAL -0.050000
223 C 8.000000 8.000000 8.000000 C.2 1 VAL -0.050000
224 C 8.000000 8.000000 12.000000 C.2 1 VAL -0.050000
225 C 8.000000 8.000000 16.000000 C.2 1 VAL -0.050000
226 C 8.000000 8.000000 20.000000 C.2 1 VAL -0.050000
227 C 8.000000 8.000000 24.000000 C.2 1 VAL -0.050000
228 C 8.000000 8.000000 28.000000 C.2 1 VAL -0.050000
229 C 8.000000 8.000000 32.000000 C.2 1 VAL -0.050000
230 C 8.000000 8.000000 36.000000 C.2 1 VAL -0.050000
231 C 8.000000 12.000000 0.000000 C.2 1 VAL -0.050000
232 C 8.000000 12.000000 4.000000 C.2 1 VAL -0.050000
233 C 8.000000 12.000000 8.000000 C.2 1 VAL -0.050000
234 C 8.000000 12.000000 12.000000 C.2 1 VAL -0.050000
235 C 8.000000 12.000000 16.000000 C.2 1 VAL -0.050000
236 C 8.000000 12.000000 20.000000 C.2 1 VAL -0.050000
237 C 8.000000 12.000000 24.000000 C.2 1 VAL -0.050000
238 C 8.000000 12.000000 28.000000 C.2 1 VAL -0.050000
239 C 8.000000 12.000000 32.000000 C.2 1 VAL -0.050000
240 C 8.000000 12.000000 36.000000 C.2 1 VAL -0.050000
241 C 8.000000 16.000000 0.000000 C.2 1 VAL -0.050000
242 C 8.000000 16.000000 4.000000 C.2 1 VAL -0.050000
243 C 8.000000 16.000000 8.000000 C.2 1 VAL -0.050000
244 C 8.000000 16.000000 12.000000 C.2 1 VAL -0.050000
245 C 8.000000 16.000000 16.000000 C.2 1 VAL -0.050000
246 C 8.000000 16.000000 20.000000 C.2 1 VAL -0.050000
247 C 8.000000 16.000000 24.000000 C.2 1 VAL -0.050000
248 C 8.000000 16.000000 28.000000 C.2 1 VAL -0.050000
249 C 8.000000 16.000000 32.000000 C.2 1 VAL -0.050000
250 C 8.000000 16.000000 36.000000 C.2 1 VAL -0.050000
251 C 8.000000 20.000000 0.000000 C.2 1 VAL -0.050000
252 C 8.000000 20.000000 4.000000 C.2 1 VAL -0.050000
253 C 8.000000 20.000000 8.000000 C.2 1 VAL -0.050000
254 C 8.000000 20.000000 12.000000 C.2 1 VAL -0.050000
255 C 8.000000 20.000000 16.000000 C.2 1 VAL -0.050000
256 C 8.000000 20.000000 20.000000 C.2 1 VAL -0.050000
257 C 8.000000 20.000000 24.000000 C.2 1 VAL -0.050000
258 C 8.000000 20.000000 28.000000 C.2 1 VAL -0.050000
259 C 8.000000 20.000000 32.000000 C.2 1 VAL -0.050000
260 C 8.000000 20.000000 36.000000 C.2 1 VAL -0.050000
261 C 8.000000 24.000000 0.000000 C.2 1 VAL -0.050000
262 C 8.000000 24.000000 4.000000 C.2 1 VAL -0.050000
263 C 8.000000 24.000000 8.000000 C.2 1 VAL -0.050000
264 C 8.000000 24.000000 12.000000 C.2 1 VAL -0.050000
265 C 8.000000 24.000000 16.000000 C.2 1 VAL -0.050000
266 C 8.000000 24.000000 20.000000 C.2 1 VAL -0.050000
267 C 8.000000 24.000000 24.000000 C.2 1 VAL -0.050000
268 C 8.000000 24.000000 28.000000 C.2 1 VAL -0.050000
269 C 8.000000 24.000000 32.000000 C.2 1 VAL -0.050000
270 C 8.000000 24.000000 36.000000 C.2 1 VAL -0.050000
271 C 8.000000 28.000000 0.000000 C.2 1 VAL -0.050000
272 C 8.000000 28.000000 4.000000 C.2 1 VAL -0.050000
273 C 8.000000 28.000000 8.000000 C.2 1 VAL -0.050000
274 C 8.000000 28.000000 12.000000 C.2 1 VAL -0.050000
275 C 8.000000 28.000000 16.000000 C.2 1 VAL -0.050000
276 C 8.000000 28.000000 20.000000 C.2 1 VAL -0.050000
277 C 8.000000 28.000000 24.000000 C.2 1 VAL -0.050000
278 C 8.000000 28.000000 28.000000 C.2 1 VAL -0.050000
279 C 8.000000 28.000000 32.000000 C.2 1 VAL -0.050000
280 C 8.000000 28.000000 36.000000 C.2 1 VAL -0.050000
281 C 8.000000 32.000000 0.000000 C.2 1 VAL -0.050000
282 C 8.000000 32.000000 4.000000 C.2 1 VAL -0.050000
283 C 8.000000 32.000000 8.000000 C.2 1 VAL -0.050000
284 C 8.000000 32.000000 12.000000 C.2 1 VAL -0.050000
285 C 8.000000 32.000000 16.000000 C.2 1 VAL -0.050000
286 C 8.000000 32.000000 20.000000 C.2 1 VAL -0.050000
287 C 8.000000 32.000000 24.000000 C.2 1 VAL -0.050000
288 C 8.000000 32.000000 28.000000 C.2 1 VAL -0.050000
289 C 8.000000 32.000000 32.000000 C.2 1 VAL -0.050000
290 C 8.000000 32.000000 36.000000 C.2 1 VAL -0.050000
291 C 8.000000 36.000000 0.000000 C.2 1 VAL -0.050000
292 C 8.000000 36.000000 4.000000 C.2 1 VAL -0.050000
293 C 8.000000 36.000000 8.000000 C.2 1 VAL -0.050000
294 C 8.000000 36.000000 12.000000 C.2 1 VAL -0.050000
295 C 8.000000 36.000000 16.000000 C.2 1 VAL -0.050000
296 C 8.000000 36.000000 20.000000 C.2 1 VAL -0.050000
297 C 8.000000 36.000000 24.000000 C.2 1 VAL -0.050000
298 C 8.000000 36.000000 28.000000 C.2 1 VAL -0.050000
299 C 8.000000 36.000000 32.000000 C.2 1 VAL -0.050000
300 C 8.000000 36.000000 36.000000 C.2 1 VAL -0.050000
301 C 12.000000 0.000000 0.000000 C.2 1 VAL -0.050000
302 C 12.000000 0.000000 4.000000 C.2 1 VAL -0.050000
303 C 12.000000 0.000000 8.000000 C.2 1 VAL -0.050000
304 C 12.000000 0.000000 12.000000 C.2 1 VAL -0.050000
305 C 12.000000 0.000000 16.000000 C.2 1 VAL -0.050000
306 C 12.000000 0.000000 20.000000 C.2 1 VAL -0.050000
307 C 12.000000 0.000000 24.000000 C.2 1 VAL -0.050000
308 C 12.000000 0.000000 28.000000 C.2 1 VAL -0.050000
309 C 12.000000 0.000000 32.000000 C.2 1 VAL -0.050000
310 C 12.000000 0.000000 36.000000 C.2 1 VAL -0.050000
311 C 12.000000 4.000000 0.000000 C.2 1 VAL -0.050000
312 C 12.000000 4.000000 4.000000 C.2 1 VAL -0.050000
313 C 12.000000 4.000000 8.000000 C.2 1 VAL -0.050000
314 C 12.000000 4.000000 12.000000 C.2 1 VAL -0.050000
315 C 12.000000 4.000000 16.000000 C.2 1 VAL -0.050000
316 C 12.000000 4.000000 20.000000 C.2 1 VAL -0.050000
317 C 12.000000 4.000000 24.000000 C.2 1 VAL -0.050000
318 C 12.000000 4.000000 28.000000 C.2 1 VAL -0.050000
319 C 12.000000 4.000000 32.000000 C.2 1 VAL -0.050000
320 C 12.000000 4.000000 36.000000 C.2 1 VAL -0.050000
321 C 12.000000 8.000000 0.000000 C.2 1 VAL -0.050000
322 C 12.000000 8.000000 4.000000 C.2 1 VAL -0.050000
323 C 12.000000 8.000000 8.000000 C.2 1 VAL -0.050000
324 C 12.000000 8.000000 12.000000 C.2 1 VAL -0.050000
325 C 12.000000 8.000000 16.000000 C.2 1 VAL -0.050000
326 C 12.000000 8.000000 20.000000 C.2 1 VAL -0.050000
327 C 12.000000 8.000000 24.000000 C.2 1 VAL -0.050000
328 C 12.000000 8.000000 28.000000 C.2 1 VAL -0.050000
329 C 12.000000 8.000000 32.000000 C.2 1 VAL -0.050000
330 C 12.000000 8.000000 36.000000 C.2 1 VAL -0.050000
331 C 12.000000 12.000000 0.000000 C.2 1 VAL -0.050000
332 C 12.000000 12.000000 4.000000 C.2 1 VAL -0.050000
333 C 12.000000 12.000000 8.000000 C.2 1 VAL -0.050000
334 C 12.000000 12.000000 12.000000 C.2 1 VAL -0.050000
335 C 12.000000 12.000000 16.000000 C.2 1 VAL -0.050000
336 C 12.000000 12.000000 20.000000 C.2 1 VAL -0.050000
337 C 12.000000 12.000000 24.000000 C.2 1 VAL -0.050000
338 C 12.000000 12.000000 28.000000 C.2 1 VAL -0.050000
339 C 12.000000 12.000000 32.000000 C.2 1 VAL -0.050000
340 C 12.000000 12.000000 36.000000 C.2 1 VAL -0.050000
341 C 12.000000 16.000000 0.000000 C.2 1 VAL -0.050000
342 C 12.000000 16.000000 4.000000 C.2 1 VAL -0.050000
343 C 12.000000 16.000000 8.000000 C.2 1 VAL -0.050000
344 C 12.000000 16.000000 12.000000 C.2 1 VAL -0.050000
345 C 12.000000 16.000000 16.000000 C.2 1 VAL -0.050000
346 C 12.000000 16.000000 20.000000 C.2 1 VAL -0.050000
347 C 12.000000 16.000000 24.000000 C.2 1 VAL -0.050000
348 C 12.000000 16.000000 28.000000 C.2 1 VAL -0.050000
349 C 12.000000 16.000000 32.000000 C.2 1 VAL -0.050000
350 C 12.000000 16.000000 36.000000 C.2 1 VAL -0.050000
351 C 12.000000 20.000000 0.000000 C.2 1 VAL -0.050000
352 C 12.000000 20.000000 4.000000 C.2 1 VAL -0.050000
353 C 12.000000 20.000000 8.000000 C.2 1 VAL -0.050000
354 C 12.000000 20.000000 12.000000 C.2 1 VAL -0.050000
355 C 12.000000 20.000000 16.000000 C.2 1 VAL -0.050000
356 C 12.000000 20.000000 20.000000 C.2 1 VAL -0.050000
357 C 12.000000 20.000000 24.000000 C.2 1 VAL -0.050000
358 C 12.000000 20.000000 28.000000 C.2 1 VAL -0.050000
359 C 12.000000 20.000000 32.000000 C.2 1 VAL -0.050000
360 C 12.000000 20.000000 36.000000 C.2 1 VAL -0.050000
361 C 12.000000 24.000000 0.000000 C.2 1 VAL -0.050000
362 C 12.000000 24.000000 4.000000 C.2 1 VAL -0.050000
363 C 12.000000 24.000000 8.000000 C.2 1 VAL -0.050000
364 C 12.000000 24.000000 12.000000 C.2 1 VAL -0.050000
365 C 12.000000 24.000000 16.000000 C.2 1 VAL -0.050000
366 C 12.000000 24.000000 20.000000 C.2 1 VAL -0.050000
367 C 12.000000 24.000000 24.000000 C.2 1 VAL -0.050000
368 C 12.000000 24.000000 28.000000 C.2 1 VAL -0.050000
369 C 12.000000 24.000000 32.000000 C.2 1 VAL -0.050000
370 C 12.000000 24.000000 36.000000 C.2 1 VAL -0.050000
371 C 12.000000 28.000000 0.000000 C.2 1 VAL -0.050000
372 C 12.000000 28.000000 4.000000 C.2 1 VAL -0.050000
373 C 12.000000 28.000000 8.000000 C.2 1 VAL -0.050000
374 C 12.000000 28.000000 12.000000 C.2 1 VAL -0.050000
375 C 12.000000 28.000000 16.000000 C.2 1 VAL -0.050000
376 C 12.000000 28.000000 20.000000 C.2 1 VAL -0.050000
377 C 12.000000 28.000000 24.000000 C.2 1 VAL -0.050000
378 C 12.000000 28.000000 28.000000 C.2 1 VAL -0.050000
379 C 12.000000 28.000000 32.000000 C.2 1 VAL -0.050000
380 C 12.000000 28.000000 36.000000 C.2 1 VAL -0.050000
381 C 12.000000 32.000000 0.000000 C.2 1 VAL -0.050000
382 C 12.000000 32.000000 4.000000 C.2 1 VAL -0.050000
383 C 12.000000 32.000000 8.000000 C.2 1 VAL -0.050000
384 C 12.000000 32.000000 12.000000 C.2 1 VAL -0.050000
385 C 12.000000 32.000000 16.000000 C.2 1 VAL -0.050000
386 C 12.000000 32.000000 20.000000 C.2 1 VAL -0.050000
387 C 12.000000 32.000000 24.000000 C.2 1 VAL -0.050000
388 C 12.000000 32.000000 28.000000 C.2 1 VAL -0.050000
389 C 12.000000 32.000000 32.000000 C.2 1 VAL -0.050000
390 C 12.000000 32.000000 36.000000 C.2 1 VAL -0.050000
391 C 12.000000 36.000000 0.000000 C.2 1 VAL -0.050000
392 C 12.000000 36.000000 4.000000 C.2 1 VAL -0.050000
393 C 12.000000 36.000000 8.000000 C.2 1 VAL -0.050000
394 C 12.000000 36.000000 12.000000 C.2 1 VAL -0.050000
395 C 12.000000 36.000000 16.000000 C.2 1 VAL -0.050000
396 C 12.000000 36.000000 20.000000 C.2 1 VAL -0.050000
397 C 12.000000 36.000000 24.000000 C.2 1 VAL -0.050000
398 C 12.000000 36.000000 28.000000 C.2 1 VAL -0.050000
399 C 12.000000 36.000000 32.000000 C.2 1 VAL -0.050000
400 C 12.000000 36.000000 36.000000 C.2 1 VAL -0.050000
401 C 16.000000 0.000000 0.000000 C.2 1 VAL -0.050000
402 C 16.000000 0.000000 4.000000 C.2 1 VAL -0.050000
403 C 16.000000 0.000000 8.000000 C.2 1 VAL -0.050000
404 C 16.000000 0.000000 12.000000 C.2 1 VAL -0.050000
405 C 16.000000 0.000000 16.000000 C.2 1 VAL -0.050000
406 C 16.000000 0.000000 20.000000 C.2 1 VAL -0.050000
407 C 16.000000 0.000000 24.000000 C.2 1 VAL -0.050000
408 C 16.000000 0.000000 28.000000 C.2 1 VAL -0.050000
409 C 16.000000 0.000000 32.000000 C.2 1 VAL -0.050000
410 C 16.000000 0.000000 36.000000 C.2 1 VAL -0.050000
411 C 16.000000 4.000000 0.000000 C.2 1 VAL -0.050000
412 C 16.000000 4.000000 4.000000 C.2 1 VAL -0.050000
413 C 16.000000 4.000000 8.000000 C.2 1 VAL -0.050000
414 C 16.000000 4.000000 12.000000 C.2 1 VAL -0.050000
415 C 16.000000 4.000000 16.000000 C.2 1 VAL -0.050000
416 C 16.000000 4.000000 20.000000 C.2 1 VAL -0.050000
417 C 16.000000 4.000000 24.000000 C.2 1 VAL -0.050000
418 C 16.000000 4.000000 28.000000 C.2 1 VAL -0.050000
419 C 16.000000 4.000000 32.000000 C.2 1 VAL -0.050000
420 C 16.000000 4.000000 36.000000 C.2 1 VAL -0.050000
421 C 16.000000 8.000000 0.000000 C.2 1 VAL -0.050000
422 C 16.000000 8.000000 4.000000 C.2 1 VAL -0.050000
423 C 16.000000 8.000000 8.000000 C.2 1 VAL -0.050000
424 C 16.000000 8.000000 12.000000 C.2 1 VAL -0.050000
425 C 16.000000 8.000000 16.000000 C.2 1 VAL -0.050000
426 C 16.000000 8.000000 20.000000 C.2 1 VAL -0.050000
427 C 16.000000 8.000000 24.000000 C.2 1 VAL -0.050000
428 C 16.000000 8.000000 28.000000 C.2 1 VAL -0.050000
429 C 16.000000 8.000000 32.000000 C.2 1 VAL -0.050000
430 C 16.000000 8.000000 36.000000 C.2 1 VAL -0.050000
431 C 16.000000 12.000000 0.000000 C.2 1 VAL -0.050000
432 C 16.000000 12.000000 4.000000 C.2 1 VAL -0.050000
433 C 16.000000 12.000000 8.000000 C.2 1 VAL -0.050000
434 C 16.000000 12.000000 12.000000 C.2 1 VAL -0.050000
435 C 16.000000 12.000000 16.000000 C.2 1 VAL -0.050000
436 C 16.000000 12.000000 20.000000 C.2 1 VAL -0.050000
437 C 16.000000 12.000000 24.000000 C.2 1 VAL -0.050000
438 C 16.000000 12.000000 28.000000 C.2 1 VAL -0.050000
439 C 16.000000 12.000000 32.000000 C.2 1 VAL -0.050000
440 C 16.000000 12.000000 36.000000 C.2 1 VAL -0.050000
441 C 16.000000 16.000000 0.000000 C.2 1 VAL -0.050000
442 C 16.000000 16.000000 4.000000 C.2 1 VAL -0.050000
443 C 16.000000 16.000000 8.000000 C.2 1 VAL -0.050000
444 C 16.000000 16.000000 12.000000 C.2 1 VAL -0.050000
445 C 16.000000 16.000000 16.000000 C.2 1 VAL -0.050000
446 C 16.000000 16.000000 20.000000 C.2 1 VAL -0.050000
447 C 16.000000 16.000000 24.000000 C.2 1 VAL -0.050000
448 C 16.000000 16.000000 28.000000 C.2 1 VAL -0.050000
449 C 16.000000 16.000000 32.000000 C.2 1 VAL -0.050000
450 C 16.000000 16.000000 36.000000 C.2 1 VAL -0.050000
451 C 16.000000 20.000000 0.000000 C.2 1 VAL -0.050000
452 C 16.000000 20.000000 4.000000 C.2 1 VAL -0.050000
453 C 16.000000 20.000000 8.000000 C.2 1 VAL -0.050000
454 C 16.000000 20.000000 12.000000 C.2 1 VAL -0.050000
455 C 16.000000 20.000000 16.000000 C.2 1 VAL -0.050000
456 C 16.000000 20.000000 20.000000 C.2 1 VAL -0.050000
457 C 16.000000 20.000000 24.000000 C.2 1 VAL -0.050000
458 C 16.000000 20.000000 28.000000 C.2 1 VAL -0.050000
459 C 16.000000 20.000000 32.000000 C.2 1 VAL -0.050000
460 C 16.000000 20.000000 36.000000 C.2 1 VAL -0.050000
461 C 16.000000 24.000000 0.000000 C.2 1 VAL -0.050000
462 C 16.000000 24.000000 4.000000 C.2 1 VAL -0.050000
463 C 16.000000 24.000000 8.000000 C.2 1 VAL -0.050000
464 C 16.000000 24.000000 12.000000 C.2 1 VAL -0.050000
465 C 16.000000 24.000000 16.000000 C.2 1 VAL -0.050000
466 C 16.000000 24.000000 20.000000 C.2 1 VAL -0.050000
467 C 16.000000 24.000000 24.000000 C.2 1 VAL -0.050000
468 C 16.000000 24.000000 28.000000 C.2 1 VAL -0.050000
469 C 16.000000 24.000000 32.000000 C.2 1 VAL -0.050000
470 C 16.000000 24.000000 36.000000 C.2 1 VAL -0.050000
471 C 16.000000 28.000000 0.000000 C.2 1 VAL -0.050000
472 C 16.000000 28.000000 4.000000 C.2 1 VAL -0.050000
473 C 16.000000 28.000000 8.000000 C.2 1 VAL -0.050000
474 C 16.000000 28.000000 12.000000 C.2 1 VAL -0.050000
475 C 16.000000 28.000000 16.000000 C.2 1 VAL -0.050000
476 C 16.000000 28.000000 20.000000 C.2 1 VAL -0.050000
477 C 16.000000 28.000000 24.000000 C.2 1 VAL -0.050000
478 C 16.000000 28.000000 28.000000 C.2 1 VAL -0.050000
479 C 16.000000 28.000000 32.000000 C.2 1 VAL -0.050000
480 C 16.000000 28.000000 36.000000 C.2 1 VAL -0.050000
481 C 16.000000 32.000000 0.000000 C.2 1 VAL -0.050000
482 C 16.000000 32.000000 4.000000 C.2 1 VAL -0.050000
483 C 16.000000 32.000000 8.000000 C.2 1 VAL -0.050000
484 C 16.000000 32.000000 12.000000 C.2 1 VAL -0.050000
485 C 16.000000 32.000000 16.000000 C.2 1 VAL -0.050000
486 C 16.000000 32.000000 20.000000 C.2 1 VAL -0.050000
487 C 16.000000 32.000000 24.000000 C.2 1 VAL -0.050000
488 C 16.000000 32.000000 28.000000 C.2 1 VAL -0.050000
489 C 16.000000 32.000000 32.000000 C.2 1 VAL -0.050000
490 C 16.000000 32.000000 36.000000 C.2 1 VAL -0.050000
491 C 16.000000 36.000000 0.000000 C.2 1 VAL -0.050000
492 C 16.000000 36.000000 4.000000 C.2 1 VAL -0.050000
493 C 16.000000 36.000000 8.000000 C.2 1 VAL -0.050000
494 C 16.000000 36.000000 12.000000 C.2 1 VAL -0.050000
495 C 16.000000 36.000000 16.000000 C.2 1 VAL -0.050000
496 C 16.000000 36.000000 20.000000 C.2 1 VAL -0.050000
497 C 16.000000 36.000000 24.000000 C.2 1 VAL -0.050000
498 C 16.000000 36.000000 28.000000 C.2 1 VAL -0.050000
499 C 16.000000 36.000000 32.000000 C.2 1 VAL -0.050000
500 C 16.000000 36.000000 36.000000 C.2 1 VAL -0.050000
501 C 20.000000 0.000000 0.000000 C.2 1 VAL 0.060000
502 C 20.000000 0.000000 4.000000 C.2 1 VAL 0.060000
503 C 20.000000 0.000000 8.000000 C.2 1 VAL 0.060000
504 C 20.000000 0.000000 12.000000 C.2 1 VAL 0.060000
505 C 20.000000 0.000000 16.000000 C.2 1 VAL 0.060000
506 C 20.000000 0.000000 20.000000 C.2 1 VAL 0.060000
507 C 20.000000 0.000000 24.000000 C.2 1 VAL 0.060000
508 C 20.000000 0.000000 28.000000 C.2 1 VAL 0.060000
509 C 20.000000 0.000000 32.000000 C.2 1 VAL 0.060000
510 C 20.000000 0.000000 36.000000 C.2 1 VAL 0.060000
511 C 20.000000 4.000000 0.000000 C.2 1 VAL 0.060000
512 C 20.000000 4.000000 4.000000 C.2 1 VAL 0.060000
513 C 20.000000 4.000000 8.000000 C.2 1 VAL 0.060000
514 C 20.000000 4.000000 12.000000 C.2 1 VAL 0.060000
515 C 20.000000 4.000000 16.000000 C.2 1 VAL 0.060000
516 C 20.000000 4.000000 20.000000 C.2 1 VAL 0.060000
517 C 20.000000 4.000000 24.000000 C.2 1 VAL 0.060000
518 C 20.000000 4.000000 28.000000 C.2 1 VAL 0.060000
519 C 20.000000 4.000000 32.000000 C.2 1 VAL 0.060000
520 C 20.000000 4.000000 36.000000 C.2 1 VAL 0.060000
521 C 20.000000 8.000000 0.000000 C.2 1 VAL 0.060000
522 C 20.000000 8.000000 4.000000 C.2 1 VAL 0.060000
523 C 20.000000 8.000000 8.000000 C.2 1 VAL 0.060000
524 C 20.000000 8.000000 12.000000 C.2 1 VAL 0.060000
525 C 20.000000 8.000000 16.000000 C.2 1 VAL 0.060000
526 C 20.000000 8.000000 20.000000 C.2 1 VAL 0.060000
527 C 20.000000 8.000000 24.000000 C.2 1 VAL 0.060000
528 C 20.000000 8.000000 28.000000 C.2 1 VAL 0.060000
529 C 20.000000 8.000000 32.000000 C.2 1 VAL 0.060000
530 C 20.000000 8.000000 36.000000 C.2 1 VAL 0.060000
531 C 20.000000 12.000000 0.000000 C.2 1 VAL 0.060000
532 C 20.000000 12.000000 4.000000 C.2 1 VAL 0.060000
533 C 20.000000 12.000000 8.000000 C.2 1 VAL 0.060000
534 C 20.000000 12.000000 28.000000 C.2 1 VAL 0.060000
535 C 20.000000 12.000000 32.000000 C.2 1 VAL 0.060000
536 C 20.000000 12.000000 36.000000 C.2 1 VAL 0.060000
537 C 20.000000 16.000000 0.000000 C.2 1 VAL 0.060000
538 C 20.000000 16.000000 4.000000 C.2 1 VAL 0.060000
539 C 20.000000 16.000000 8.000000 C.2 1 VAL 0.060000
540 C 20.000000 16.000000 28.000000 C.2 1 VAL 0.060000
541 C 20.000000 16.000000 32.000000 C.2 1 VAL 0.060000
542 C 20.000000 16.000000 36.000000 C.2 1 VAL 0.060000
543 C 20.000000 20.000000 0.000000 C.2 1 VAL 0.060000
544 C 20.000000 20.000000 4.000000 C.2 1 VAL 0.060000
545 C 20.000000 20.000000 8.000000 C.2 1 VAL 0.060000
546 C 20.000000 20.000000 28.000000 C.2 1 VAL 0.060000
547 C 20.000000 20.000000 32.000000 C.2 1 VAL 0.060000
548 C 20.000000 20.000000 36.000000 C.2 1 VAL 0.060000
549 C 20.000000 24.000000 0.000000 C.2 1 VAL 0.060000
550 C 20.000000 24.000000 4.000000 C.2 1 VAL 0.060000
551 C 20.000000 24.000000 8.000000 C.2 1 VAL 0.060000
552 C 20.000000 24.000000 28.000000 C.2 1 VAL 0.060000
553 C 20.000000 24.000000 32.000000 C.2 1 VAL 0.060000
554 C 20.000000 24.000000 36.000000 C.2 1 VAL 0.060000
555 C 20.000000 28.000000 0.000000 C.2 1 VAL 0.060000
556 C 20.000000 28.000000 4.000000 C.2 1 VAL 0.060000
557 C 20.000000 28.000000 8.000000 C.2 1 VAL 0.060000
558 C 20.000000 28.000000 12.000000 C.2 1 VAL 0.060000
559 C 20.000000 28.000000 16.000000 C.2 1 VAL 0.060000
560 C 20.000000 28.000000 20.000000 C.2 1 VAL 0.060000
561 C 20.000000 28.000000 24.000000 C.2 1 VAL 0.060000
562 C 20.000000 28.000000 28.000000 C.2 1 VAL 0.060000
563 C 20.000000 28.000000 32.000000 C.2 1 VAL 0.060000
564 C 20.000000 28.000000 36.000000 C.2 1 VAL 0.060000
565 C 20.000000 32.000000 0.000000 C.2 1 VAL 0.060000
566 C 20.000000 32.000000 4.000000 C.2 1 VAL 0.060000
567 C 20.000000 32.000000 8.000000 C.2 1 VAL 0.060000
568 C 20.000000 32.000000 12.000000 C.2 1 VAL 0.060000
569 C 20.000000 32.000000 16.000000 C.2 1 VAL 0.060000
570 C 20.000000 32.000000 20.000000 C.2 1 VAL 0.060000
571 C 20.000000 32.000000 24.000000 C.2 1 VAL 0.060000
572 C 20.000000 32.000000 28.000000 C.2 1 VAL 0.060000
573 C 20.000000 32.000000 32.000000 C.2 1 VAL 0.060000
574 C 20.000000 32.000000 36.000000 C.2 1 VAL 0.060000
575 C 20.000000 36.000000 0.000000 C.2 1 VAL 0.060000
576 C 20.000000 36.000000 4.000000 C.2 1 VAL 0.060000
577 C 20.000000 36.000000 8.000000 C.2 1 VAL 0.060000
578 C 20.000000 36.000000 12.000000 C.2 1 VAL 0.060000
579 C 20.000000 36.000000 16.000000 C.2 1 VAL 0.060000
580 C 20.000000 36.000000 20.000000 C.2 1 VAL 0.060000
581 C 20.000000 36.000000 24.000000 C.2 1 VAL 0.060000
582 C 20.000000 36.000000 28.000000 C.2 1 VAL 0.060000
583 C 20.000000 36.000000 32.000000 C.2 1 VAL 0.060000
584 C 20.000000 36.000000 36.000000 C.2 1 VAL 0.060000
585 C 24.000000 0.000000 0.000000 C.2 1 VAL 0.060000
586 C 24.000000 0.000000 4.000000 C.2 1 VAL 0.060000
587 C 24.000000 0.000000 8.000000 C.2 1 VAL 0.060000
588 C 24.000000 0.000000 12.000000 C.2 1 VAL 0.060000
589 C 24.000000 0.000000 16.000000 C.2 1 VAL 0.060000
590 C 24.000000 0.000000 20.000000 C.2 1 VAL 0.060000
591 C 24.000000 0.000000 24.000000 C.2 1 VAL 0.060000
592 C 24.000000 0.000000 28.000000 C.2 1 VAL 0.060000
593 C 24.000000 0.000000 32.000000 C.2 1 VAL 0.060000
594 C 24.000000 0.000000 36.000000 C.2 1 VAL 0.060000
595 C 24.000000 4.000000 0.000000 C.2 1 VAL 0.060000
596 C 24.000000 4.000000 4.000000 C.2 1 VAL 0.060000
597 C 24.000000 4.000000 8.000000 C.2 1 VAL 0.060000
598 C 24.000000 4.000000 12.000000 C.2 1 VAL 0.060000
599 C 24.000000 4.000000 16.000000 C.2 1 VAL 0.060000
600 C 24.000000 4.000000 20.000000 C.2 1 VAL 0.060000
601 C 24.000000 4.000000 24.000000 C.2 1 VAL 0.060000
602 C 24.000000 4.000000 28.000000 C.2 1 VAL 0.060000
603 C 24.000000 4.000000 32.000000 C.2 1 VAL 0.060000
604 C 24.000000 4.000000 36.000000 C.2 1 VAL 0.060000
605 C 24.000000 8.000000 0.000000 C.2 1 VAL 0.060000
606 C 24.000000 8.000000 4.000000 C.2 1 VAL 0.060000
607 C 24.000000 8.000000 8.000000 C.2 1 VAL 0.060000
608 C 24.000000 8.000000 12.000000 C.2 1 VAL 0.060000
609 C 24.000000 8.000000 16.000000 C.2 1 VAL 0.060000
610 C 24.000000 8.000000 20.000000 C.2 1 VAL 0.060000
611 C 24.000000 8.000000 24.000000 C.2 1 VAL 0.060000
612 C 24.000000 8.000000 28.000000 C.2 1 VAL 0.060000
613 C 24.000000 8.000000 32.000000 C.2 1 VAL 0.060000
614 C 24.000000 8.000000 36.000000 C.2 1 VAL 0.060000
615 C 24.000000 12.000000 0.000000 C.2 1 VAL 0.060000
616 C 24.000000 12.000000 4.000000 C.2 1 VAL 0.060000
617 C 24.000000 12.000000 8.000000 C.2 1 VAL 0.060000
618 C 24.000000 12.000000 28.000000 C.2 1 VAL 0.060000
619 C 24.000000 12.000000 32.000000 C.2 1 VAL 0.060000
620 C 24.000000 12.000000 36.000000 C.2 1 VAL 0.060000
621 C 24.000000 16.000000 0.000000 C.2 1 VAL 0.060000
622 C 24.000000 16.000000 4.000000 C.2 1 VAL 0.060000
623 C 24.000000 16.000000 8.000000 C.2 1 VAL 0.060000
624 C 24.000000 16.000000 28.000000 C.2 1 VAL 0.060000
625 C 24.000000 16.000000 32.000000 C.2 1 VAL 0.060000
626 C 24.000000 16.000000 36.000000 C.2 1 VAL 0.060000
627 C 24.000000 20.000000 0.000000 C.2 1 VAL 0.060000
628 C 24.000000 20.000000 4.000000 C.2 1 VAL 0.060000
629 C 24.000000 20.000000 8.000000 C.2 1 VAL 0.060000
630 C 24.000000 20.000000 28.000000 C.2 1 VAL 0.060000
631 C 24.000000 20.000000 32.000000 C.2 1 VAL 0.060000
632 C 24.000000 20.000000 36.000000 C.2 1 VAL 0.060000
633 C 24.000000 24.000000 0.000000 C.2 1 VAL 0.060000
634 C 24.000000 24.000000 4.000000 C.2 1 VAL 0.060000
635 C 24.000000 24.000000 8.000000 C.2 1 VAL 0.060000
636 C 24.000000 24.000000 28.000000 C.2 1 VAL 0.060000
637 C 24.000000 24.000000 32.000000 C.2 1 VAL 0.060000
638 C 24.000000 24.000000 36.000000 C.2 1 VAL 0.060000
639 C 24.000000 28.000000 0.000000 C.2 1 VAL 0.060000
640 C 24.000000 28.000000 4.000000 C.2 1 VAL 0.060000
641 C 24.000000 28.000000 8.000000 C.2 1 VAL 0.060000
642 C 24.000000 28.000000 12.000000 C.2 1 VAL 0.060000
643 C 24.000000 28.000000 16.000000 C.2 1 VAL 0.060000
644 C 24.000000 28.000000 20.000000 C.2 1 VAL 0.060000
645 C 24.000000 28.000000 24.000000 C.2 1 VAL 0.060000
646 C 24.000000 28.000000 28.000000 C.2 1 VAL 0.060000
647 C 24.000000 28.000000 32.000000 C.2 1 VAL 0.060000
648 C 24.000000 28.000000 36.000000 C.2 1 VAL 0.060000
649 C 24.000000 32.000000 0.000000 C.2 1 VAL 0.060000
650 C 24.000000 32.000000 4.000000 C.2 1 VAL 0.060000
651 C 24.000000 32.000000 8.000000 C.2 1 VAL 0.060000
652 C 24.000000 32.000000 12.000000 C.2 1 VAL 0.060000
653 C 24.000000 32.000000 16.000000 C.2 1 VAL 0.060000
654 C 24.000000 32.000000 20.000000 C.2 1 VAL 0.060000
655 C 24.000000 32.000000 24.000000 C.2 1 VAL 0.060000
656 C 24.000000 32.000000 28.000000 C.2 1 VAL 0.060000
657 C 24.000000 32.000000 32.000000 C.2 1 VAL 0.060000
658 C 24.000000 32.000000 36.000000 C.2 1 VAL 0.060000
659 C 24.000000 36.000000 0.000000 C.2 1 VAL 0.060000
660 C 24.000000 36.000000 4.000000 C.2 1 VAL 0.060000
661 C 24.000000 36.000000 8.000000 C.2 1 VAL 0.060000
662 C 24.000000 36.000000 12.000000 C.2 1 VAL 0.060000
663 C 24.000000 36.000000 16.000000 C.2 1 VAL 0.060000
664 C 24.000000 36.000000 20.000000 C.2 1 VAL 0.060000
665 C 24.000000 36.000000 24.000000 C.2 1 VAL 0.060000
666 C 24.000000 36.000000 28.000000 C.2 1 VAL 0.060000
667 C 24.000000 36.000000 32.000000 C.2 1 VAL 0.060000
668 C 24.000000 36.000000 36.000000 C.2 1 VAL 0.060000
669 C 28.000000 0.000000 0.000000 C.2 1 VAL 0.060000
670 C 28.000000 0.000000 4.000000 C.2 1 VAL 0.060000
671 C 28.000000 0.000000 8.000000 C.2 1 VAL 0.060000
672 C 28.000000 0.000000 12.000000 C.2 1 VAL 0.060000
673 C 28.000000 0.000000 16.000000 C.2 1 VAL 0.060000
674 C 28.000000 0.000000 20.000000 C.2 1 VAL 0.060000
675 C 28.000000 0.000000 24.000000 C.2 1 VAL 0.060000
676 C 28.000000 0.000000 28.000000 C.2 1 VAL 0.060000
677 C 28.000000 0.000000 32.000000 C.2 1 VAL 0.060000
678 C 28.000000 0.000000 36.000000 C.2 1 VAL 0.060000
679 C 28.000000 4.000000 0.000000 C.2 1 VAL 0.060000
680 C 28.000000 4.000000 4.000000 C.2 1 VAL 0.060000
681 C 28.000000 4.000000 8.000000 C.2 1 VAL 0.060000
682 C 28.000000 4.000000 12.000000 C.2 1 VAL 0.060000
683 C 28.000000 4.000000 16.000000 C.2 1 VAL 0.060000
684 C 28.000000 4.000000 20.000000 C.2 1 VAL 0.060000
685 C 28.000000 4.000000 24.000000 C.2 1 VAL 0.060000
686 C 28.000000 4.000000 28.000000 C.2 1 VAL 0.060000
687 C 28.000000 4.000000 32.000000 C.2 1 VAL 0.060000
688 C 28.000000 4.000000 36.000000 C.2 1 VAL 0.060000
689 C 28.000000 8.000000 0.000000 C.2 1 VAL 0.060000
690 C 28.000000 8.000000 4.000000 C.2 1 VAL 0.060000
691 C 28.000000 8.000000 8.000000 C.2 1 VAL 0.060000
692 C 28.000000 8.000000 12.000000 C.2 1 VAL 0.060000
693 C 28.000000 8.000000 16.000000 C.2 1 VAL 0.060000
694 C 28.000000 8.000000 20.000000 C.2 1 VAL 0.060000
695 C 28.000000 8.000000 24.000000 C.2 1 VAL 0.060000
696 C 28.000000 8.000000 28.000000 C.2 1 VAL 0.060000
697 C 28.000000 8.000000 32.000000 C.2 1 VAL 0.060000
698 C 28.000000 8.000000 36.000000 C.2 1 VAL 0.060000
699 C 28.000000 12.000000 0.000000 C.2 1 VAL 0.060000
700 C 28.000000 12.000000 4.000000 C.2 1 VAL 0.060000
701 C 28.000000 12.000000 8.000000 C.2 1 VAL 0.060000
702 C 28.000000 12.000000 28.000000 C.2 1 VAL 0.060000
703 C 28.000000 12.000000 32.000000 C.2 1 VAL 0.060000
704 C 28.000000 12.000000 36.000000 C.2 1 VAL 0.060000
705 C 28.000000 16.000000 0.000000 C.2 1 VAL 0.060000
706 C 28.000000 16.000000 4.000000 C.2 1 VAL 0.060000
707 C 28.000000 16.000000 8.000000 C.2 1 VAL 0.060000
708 C 28.000000 16.000000 28.000000 C.2 1 VAL 0.060000
709 C 28.000000 16.000000 32.000000 C.2 1 VAL 0.060000
710 C 28.000000 16.000000 36.000000 C.2 1 VAL 0.060000
711 C 28.000000 20.000000 0.000000 C.2 1 VAL 0.060000
712 C 28.000000 20.000000 4.000000 C.2 1 VAL 0.060000
713 C 28.000000 20.000000 8.000000 C.2 1 VAL 0.060000
714 C 28.000000 20.000000 28.000000 C.2 1 VAL 0.060000
715 C 28.000000 20.000000 32.000000 C.2 1 VAL 0.060000
716 C 28.000000 20.000000 36.000000 C.2 1 VAL 0.060000
717 C 28.000000 24.000000 0.000000 C.2 1 VAL 0.060000
718 C 28.000000 24.000000 4.000000 C.2 1 VAL 0.060000
719 C 28.000000 24.000000 8.000000 C.2 1 VAL 0.060000
720 C 28.000000 24.000000 28.000000 C.2 1 VAL 0.060000
721 C 28.000000 24.000000 32.000000 C.2 1 VAL 0.060000
722 C 28.000000 24.000000 36.000000 C.2 1 VAL 0.060000
723 C 28.000000 28.000000 0.000000 C.2 1 VAL 0.060000
724 C 28.000000 28.000000 4.000000 C.2 1 VAL 0.060000
725 C 28.000000 28.000000 8.000000 C.2 1 VAL 0.060000
726 C 28.000000 28.000000 12.000000 C.2 1 VAL 0.060000
727 C 28.000000 28.000000 16.000000 C.2 1 VAL 0.060000
728 C 28.000000 28.000000 20.000000 C.2 1 VAL 0.060000
729 C 28.000000 28.000000 24.000000 C.2 1 VAL 0.060000
730 C 28.000000 28.000000 28.000000 C.2 1 VAL 0.060000
731 C 28.000000 28.000000 32.000000 C.2 1 VAL 0.060000
732 C 28.000000 28.000000 36.000000 C.2 1 VAL 0.060000
733 C 28.000000 32.000000 0.000000 C.2 1 VAL 0.060000
734 C 28.000000 32.000000 4.000000 C.2 1 VAL 0.060000
735 C 28.000000 32.000000 8.000000 C.2 1 VAL 0.060000
736 C 28.000000 32.000000 12.000000 C.2 1 VAL 0.060000
737 C 28.000000 32.000000 16.000000 C.2 1 VAL 0.060000
738 C 28.000000 32.000000 20.000000 C.2 1 VAL 0.060000
739 C 28.000000 32.000000 24.000000 C.2 1 VAL 0.060000
740 C 28.000000 32.000000 28.000000 C.2 1 VAL 0.060000
741 C 28.000000 32.000000 32.000000 C.2 1 VAL 0.060000
742 C 28.000000 32.000000 36.000000 C.2 1 VAL 0.060000
743 C 28.000000 36.000000 0.000000 C.2 1 VAL 0.060000
744 C 28.000000 36.000000 4.000000 C.2 1 VAL 0.060000
745 C 28.000000 36.000000 8.000000 C.2 1 VAL 0.060000
746 C 28.000000 36.000000 12.000000 C.2 1 VAL 0.060000
747 C 28.000000 36.000000 16.000000 C.2 1 VAL 0.060000
748 C 28.000000 36.000000 20.000000 C.2 1 VAL 0.060000
749 C 28.000000 36.000000 24.000000 C.2 1 VAL 0.060000
750 C 28.000000 36.000000 28.000000 C.2 1 VAL 0.060000
751 C 28.000000 36.000000 32.000000 C.2 1 VAL 0.060000
752 C 28.000000 36.000000 36.000000 C.2 1 VAL 0.060000
753 C 32.000000 0.000000 0.000000 C.2 1 VAL 0.060000
754 C 32.000000 0.000000 4.000000 C.2 1 VAL 0.060000
755 C 32.000000 0.000000 8.000000 C.2 1 VAL 0.060000
756 C 32.000000 0.000000 12.000000 C.2 1 VAL 0.060000
757 C 32.000000 0.000000 16.000000 C.2 1 VAL 0.060000
758 C 32.000000 0.000000 20.000000 C.2 1 VAL 0.060000
759 C 32.000000 0.000000 24.000000 C.2 1 VAL 0.060000
760 C 32.000000 0.000000 28.000000 C.2 1 VAL 0.060000
761 C 32.000000 0.000000 32.000000 C.2 1 VAL 0.060000
762 C 32.000000 0.000000 36.000000 C.2 1 VAL 0.060000
763 C 32.000000 4.000000 0.000000 C.2 1 VAL 0.060000
764 C 32.000000 4.000000 4.000000 C.2 1 VAL 0.060000
765 C 32.000000 4.000000 8.000000 C.2 1 VAL 0.060000
766 C 32.000000 4.000000 12.000000 C.2 1 VAL 0.060000
767 C 32.000000 4.000000 16.000000 C.2 1 VAL 0.060000
768 C 32.000000 4.000000 20.000000 C.2 1 VAL 0.060000
769 C 32.000000 4.000000 24.000000 C.2 1 VAL 0.060000
770 C 32.000000 4.000000 28.000000 C.2 1 VAL 0.060000
771 C 32.000000 4.000000 32.000000 C.2 1 VAL 0.060000
772 C 32.000000 4.000000 36.000000 C.2 1 VAL 0.060000
773 C 32.000000 8.000000 0.000000 C.2 1 VAL 0.060000
774 C 32.000000 8.000000 4.000000 C.2 1 VAL 0.060000
775 C 32.000000 8.000000 8.000000 C.2 1 VAL 0.060000
776 C 32.000000 8.000000 12.000000 C.2 1 VAL 0.060000
777 C 32.000000 8.000000 16.000000 C.2 1 VAL 0.060000
778 C 32.000000 8.000000 20.000000 C.2 1 VAL 0.060000
779 C 32.000000 8.000000 24.000000 C.2 1 VAL 0.060000
780 C 32.000000 8.000000 28.000000 C.2 1 VAL 0.060000
781 C 32.000000 8.000000 32.000000 C.2 1 VAL 0.060000
782 C 32.000000 8.000000 36.000000 C.2 1 VAL 0.060000
783 C 32.000000 12.000000 0.000000 C.2 1 VAL 0.060000
784 C 32.000000 12.000000 4.000000 C.2 1 VAL 0.060000
785 C 32.000000 12.000000 8.000000 C.2 1 VAL 0.060000
786 C 32.000000 12.000000 28.000000 C.2 1 VAL 0.060000
787 C 32.000000 12.000000 32.000000 C.2 1 VAL 0.060000
788 C 32.000000 12.000000 36.000000 C.2 1 VAL 0.060000
789 C 32.000000 16.000000 0.000000 C.2 1 VAL 0.060000
790 C 32.000000 16.000000 4.000000 C.2 1 VAL 0.060000
791 C 32.000000 16.000000 8.000000 C.2 1 VAL 0.060000
792 C 32.000000 16.000000 28.000000 C.2 1 VAL 0.060000
793 C 32.000000 16.000000 32.000000 C.2 1 VAL 0.060000
794 C 32.000000 16.000000 36.000000 C.2 1 VAL 0.060000
795 C 32.000000 20.000000 0.000000 C.2 1 VAL 0.060000
796 C 32.000000 20.000000 4.000000 C.2 1 VAL 0.060000
797 C 32.000000 20.000000 8.000000 C.2 1 VAL 0.060000
798 C 32.000000 20.000000 28.000000 C.2 1 VAL 0.060000
799 C 32.000000 20.000000 32.000000 C.2 1 VAL 0.060000
800 C 32.000000 20.000000 36.000000 C.2 1 VAL 0.060000
801 C 32.000000 24.000000 0.000000 C.2 1 VAL 0.060000
802 C 32.000000 24.000000 4.000000 C.2 1 VAL 0.060000
803 C 32.000000 24.000000 8.000000 C.2 1 VAL 0.060000
804 C 32.000000 24.000000 28.000000 C.2 1 VAL 0.060000
805 C 32.000000 24.000000 32.000000 C.2 1 VAL 0.060000
806 C 32.000000 24.000000 36.000000 C.2 1 VAL 0.060000
807 C 32.000000 28.000000 0.000000 C.2 1 VAL 0.060000
808 C 32.000000 28.000000 4.000000 C.2 1 VAL 0.060000
809 C 32.000000 28.000000 8.000000 C.2 1 VAL 0.060000
810 C 32.000000 28.000000 12.000000 C.2 1 VAL 0.060000
811 C 32.000000 28.000000 16.000000 C.2 1 VAL 0.060000
812 C 32.000000 28.000000 20.000000 C.2 1 VAL 0.060000
813 C 32.000000 28.000000 24.000000 C.2 1 VAL 0.060000
814 C 32.000000 28.000000 28.000000 C.2 1 VAL 0.060000
815 C 32.000000 28.000000 32.000000 C.2 1 VAL 0.060000
816 C 32.000000 28.000000 36.000000 C.2 1 VAL 0.060000
817 C 32.000000 32.000000 0.000000 C.2 1 VAL 0.060000
818 C 32.000000 32.000000 4.000000 C.2 1 VAL 0.060000
819 C 32.000000 32.000000 8.000000 C.2 1 VAL 0.060000
820 C 32.000000 32.000000 12.000000 C.2 1 VAL 0.060000
821 C 32.000000 32.000000 16.000000 C.2 1 VAL 0.060000
822 C 32.000000 32.000000 20.000000 C.2 1 VAL 0.060000
823 C 32.000000 32.000000 24.000000 C.2 1 VAL 0.060000
824 C 32.000000 32.000000 28.000000 C.2 1 VAL 0.060000
825 C 32.000000 32.000000 32.000000 C.2 1 VAL 0.060000
826 C 32.000000 32.000000 36.000000 C.2 1 VAL 0.060000
827 C 32.000000 36.000000 0.000000 C.2 1 VAL 0.060000
828 C 32.000000 36.000000 4.000000 C.2 1 VAL 0.060000
829 C 32.000000 36.000000 8.000000 C.2 1 VAL 0.060000
830 C 32.000000 36.000000 12.000000 C.2 1 VAL 0.060000
831 C 32.000000 36.000000 16.000000 C.2 1 VAL 0.060000
832 C 32.000000 36.000000 20.000000 C.2 1 VAL 0.060000
833 C 32.000000 36.000000 24.000000 C.2 1 VAL 0.060000
834 C 32.000000 36.000000 28.000000 C.2 1 VAL 0.060000
835 C 32.000000 36.000000 32.000000 C.2 1 VAL 0.060000
836 C 32.000000 36.000000 36.000000 C.2 1 VAL 0.060000
837 C 36.000000 0.000000 0.000000 C.2 1 VAL 0.060000
838 C 36.000000 0.000000 4.000000 C.2 1 VAL 0.060000
839 C 36.000000 0.000000 8.000000 C.2 1 VAL 0.060000
840 C 36.000000 0.000000 12.000000 C.2 1 VAL 0.060000
841 C 36.000000 0.000000 16.000000 C.2 1 VAL 0.060000
842 C 36.000000 0.000000 20.000000 C.2 1 VAL 0.060000
843 C 36.000000 0.000000 24.000000 C.2 1 VAL 0.060000
844 C 36.000000 0.000000 28.000000 C.2 1 VAL 0.060000
845 C 36.000000 0.000000 32.000000 C.2 1 VAL 0.060000
846 C 36.000000 0.000000 36.000000 C.2 1 VAL 0.060000
847 C 36.000000 4.000000 0.000000 C.2 1 VAL 0.060000
848 C 36.000000 4.000000 4.000000 C.2 1 VAL 0.060000
849 C 36.000000 4.000000 8.000000 C.2 1 VAL 0.060000
850 C 36.000000 4.000000 12.000000 C.2 1 VAL 0.060000
851 C 36.000000 4.000000 16.000000 C.2 1 VAL 0.060000
852 C 36.000000 4.000000 20.000000 C.2 1 VAL 0.060000
853 C 36.000000 4.000000 24.000000 C.2 1 VAL 0.060000
854 C 36.000000 4.000000 28.000000 C.2 1 VAL 0.060000
855 C 36.000000 4.000000 32.000000 C.2 1 VAL 0.060000
856 C 36.000000 4.000000 36.000000 C.2 1 VAL 0.060000
857 C 36.000000 8.000000 0.000000 C.2 1 VAL 0.060000
858 C 36.000000 8.000000 4.000000 C.2 1 VAL 0.060000
859 C 36.000000 8.000000 8.000000 C.2 1 VAL 0.060000
860 C 36.000000 8.000000 12.000000 C.2 1 VAL 0.060000
861 C 36.000000 8.000000 16.000000 C.2 1 VAL 0.060000
862 C 36.000000 8.000000 20.000000 C.2 1 VAL 0.060000
863 C 36.000000 8.000000 24.000000 C.2 1 VAL 0.060000
864 C 36.000000 8.000000 28.000000 C.2 1 VAL 0.060000
865 C 36.000000 8.000000 32.000000 C.2 1 VAL 0.060000
866 C 36.000000 8.000000 36.000000 C.2 1 VAL 0.060000
867 C 36.000000 12.000000 0.000000 C.2 1 VAL 0.060000
868 C 36.000000 12.000000 4.000000 C.2 1 VAL 0.060000
869 C 36.000000 12.000000 8.000000 C.2 1 VAL 0.060000
870 C 36.000000 12.000000 28.000000 C.2 1 VAL 0.060000
871 C 36.000000 12.000000 32.000000 C.2 1 VAL 0.060000
872 C 36.000000 12.000000 36.000000 C.2 1 VAL 0.060000
873 C 36.000000 16.000000 0.000000 C.2 1 VAL 0.060000
874 C 36.000000 16.000000 4.000000 C.2 1 VAL 0.060000
875 C 36.000000 16.000000 8.000000 C.2 1 VAL 0.060000
876 C 36.000000 16.000000 28.000000 C.2 1 VAL 0.060000
877 C 36.000000 16.000000 32.000000 C.2 1 VAL 0.060000
878 C 36.000000 16.000000 36.000000 C.2 1 VAL 0.060000
879 C 36.000000 20.000000 0.000000 C.2 1 VAL 0.060000
880 C 36.000000 20.000000 4.000000 C.2 1 VAL 0.060000
881 C 36.000000 20.000000 8.000000 C.2 1 VAL 0.060000
882 C 36.000000 20.000000 28.000000 C.2 1 VAL 0.060000
883 C 36.000000 20.000000 32.000000 C.2 1 VAL 0.060000
884 C 36.000000 20.000000 36.000000 C.2 1 VAL 0.060000
885 C 36.000000 24.000000 0.000000 C.2 1 VAL 0.060000
886 C 36.000000 24.000000 4.000000 C.2 1 VAL 0.060000
887 C 36.000000 24.000000 8.000000 C.2 1 VAL 0.060000
888 C 36.000000 24.000000 28.000000 C.2 1 VAL 0.060000
889 C 36.000000 24.000000 32.000000 C.2 1 VAL 0.060000
890 C 36.000000 24.000000 36.000000 C.2 1 VAL 0.060000
891 C 36.000000 28.000000 0.000000 C.2 1 VAL 0.060000
892 C 36.000000 28.000000 4.000000 C.2 1 VAL 0.060000
893 C 36.000000 28.000000 8.000000 C.2 1 VAL 0.060000
894 C 36.000000 28.000000 12.000000 C.2 1 VAL 0.060000
895 C 36.000000 28.000000 16.000000 C.2 1 VAL 0.060000
896 C 36.000000 28.000000 20.000000 C.2 1 VAL 0.060000
897 C 36.000000 28.000000 24.000000 C.2 1 VAL 0.060000
898 C 36.000000 28.000000 28.000000 C.2 1 VAL 0.060000
899 C 36.000000 28.000000 32.000000 C.2 1 VAL 0.060000
900 C 36.000000 28.000000 36.000000 C.2 1 VAL 0.060000
901 C 36.000000 32.000000 0.000000 C.2 1 VAL 0.060000
902 C 36.000000 32.000000 4.000000 C.2 1 VAL 0.060000
903 C 36.000000 32.000000 8.000000 C.2 1 VAL 0.060000
904 C 36.000000 32.000000 12.000000 C.2 1 VAL 0.060000
905 C 36.000000 32.000000 16.000000 C.2 1 VAL 0.060000
906 C 36.000000 32.000000 20.000000 C.2 1 VAL 0.060000
907 C 36.000000 32.000000 24.000000 C.2 1 VAL 0.060000
908 C 36.000000 32.000000 28.000000 C.2 1 VAL 0.060000
909 C 36.000000 32.000000 32.000000 C.2 1 VAL 0.060000
910 C 36.000000 32.000000 36.000000 C.2 1 VAL 0.060000
911 C 36.000000 36.000000 0.000000 C.2 1 VAL 0.060000
912 C 36.000000 36.000000 4.000000 C.2 1 VAL 0.060000
913 C 36.000000 36.000000 8.000000 C.2 1 VAL 0.060000
914 C 36.000000 36.000000 12.000000 C.2 1 VAL 0.060000
915 C 36.000000 36.000000 16.000000 C.2 1 VAL 0.060000
916 C 36.000000 36.000000 20.000000 C.2 1 VAL 0.060000
917 C 36.000000 36.000000 24.000000 C.2 1 VAL 0.060000
918 C 36.000000 36.000000 28.000000 C.2 1 VAL 0.060000
919 C 36.000000 36.000000 32.000000 C.2 1 VAL 0.060000
920 C 36.000000 36.000000 36.000000 C.2 1 VAL 0.060000
